*  **************************************************************
*  *  TSMC SPICE MODEL --- Security B - TSMC Restricted Secret  *
*  **************************************************************
*
*    PROCESS :  TSMC 7NM CMOS LOGIC FIN FET HKMG SPICE MODEL (0.75V/1.8V) (CLN7)
*    MODEL   :  BSIMCMG (106.1)
*    DOC. NO.:  T-N07-CL-SP-001
*    VERSION :  v1d2_2p2
*    DATE    :  05:23PM, Mar. 20, 2020
*    HSPICE VERSION : M-2017.03-SP2-1
*    AFS VERSION : 2017.3_1
*
*    TMI EXAMPLE PACKAGE VERSION : TMI2d0d1_2017_0601
*    RH COMPILER/OS VERSION      : gcc 4.1.2 / Red Hat Enterprise Linux AS release 4
*    WIN COMPILER/OS VERSION     : Visual Studio 2008 / Windows 7
*    SUSE COMPILER/OS VERSION    : gcc 4.1.0 / SUSE Linux Enterprise Server 10
*
****************************************************************************************************
*                                                                                                  *
*  Note:                                                                                           *
*  This reliability related document is for reference purposes only, and shall not under any       *
*  circumstance be considered as a representation or warranty from TSMC                            *
*                                                                                                  *
****************************************************************************************************
* Release Note:                                                                                    *
*                                                                                                  *
*     Date          Version       Description                                                      *
*                                                                                                  *
*  18. 2020/03/20   v1d2_2p2      1. Newly created self-heating effect models for SVT/LVT/ULVT/    *
*                                    IO18/IO18ud15/IO18ud12/IOLVT15/IOLVT15ud12.                   *
*                                 2. Newly created aging models for SVT/LVT/ULVT/IO18/IO18ud15/    *
*                                    18ud12/IOLVT15/IOLVT15ud12.                                   *
*                                 3. Newly created LC tank models including RF MOSCAP and RF       *
*                                    RTMOM.                                                        *
*                                 4. Update HIA18-Diode corner model.                              *
*                                                                                                  *
*  17. 2020/02/20   v1d2_2p1      1. Newly created corner models for HIA18-NMOS/HIA18-Diode/RTMOM. *
*                                 2. Newly created PPE effects for CPP64 and CPP76 in v1d2_2p1.    *
*                                 3. Newly created statistical models for SVT/LVT/ULVT/IO18/       *
*                                    IO18ud15/IO18ud12/IOLVT15/IOLVT15ud12/BJT/Diode/Resistor/     *
*                                    MOSCAP/RTMOM.                                                 *
*                                 4. Newly created mismatch models for SVT/LVT/ULVT/IO18/IO18ud15/ *
*                                    IO18ud12/IOLVT15/IOLVT15ud12/BJT/High-Resistor/RTMOM.         *
*                                 5. Newly created analog corner models for SVT/LVT/ULVT/IO18/     *
*                                    IO18ud15/IO18ud12/IOLVT15/IOLVT15ud12.                        *
*                                 6. Newly created flicker noise models for SVT/LVT/ULVT/IO18/     *
*                                    IO18ud15/IO18ud12/IOLVT15/IOLVT15ud12/High-Resistor.          *
*                                 7. Newly created thermal noise models for SVT/LVT/ULVT/IO18/     *
*                                    IO18ud15/IO18ud12/IOLVT15/IOLVT15ud12.                        *
*                                                                                                  *
*  16. 2020/01/17   v1d2_1p1      1. Newly created corner models for SVT/LVT/ULVT/IO18/IO18ud15/   *
*                                    IO18ud12/IOLVT15/IOLVT15ud12/PODE/BJT/Diode/Resistor/MOSCAP/  *
*                                    MIMCAP.                                                       *
*                                 2. Newly created MOSFET layout dependence effect models.         *
*                                 3. The PPE effects for CPP64 and CPP76 are  placeholder          *
*                                    in v1d2_1p1.                                                  *
*                                 4. Copied flicker/thermal noise models from v1d1_2p3.            *
*                                 5. Copied HIA18-NMOS/HIA18-Diode/RTMOM device models from        *
*                                    v1d1_2p3 as placeholder in a plug-in model card.              *
*                                 6. Copied LC tank device models from v1d1_2p3 as                 *
*                                    placeholder in a plug-in model card.                          *
*                                                                                                  *
*  15. 2018/10/19   v1d1_2p3      1. Newly created PPE (CPP76)layout dependence effect models for  *
*				     SVT/LVT/ULVT.						   *
*                                                                                                  *
*  14. 2018/08/29   v1d1_2p2      1. Newly created self-heating effect models for SVT/LVT/ULVT/    *
*                                    IO18/IO18ud15/IO18ud12/IOLVT15/IOLVT15ud12.                   *
*                                 2. Newly created aging models for SVT/LVT/ULVT/IO18/IO18ud15/    *
*                                    18ud12/IOLVT15/IOLVT15ud12.                                   *
*                                 3. Newly created LC tank models including RF MOSCAP and RF       *
*                                    RTMOM.                                                        *
*                                 4. Added Qworst and Qbest corner for RF MOM Q-corner tightening. *
*												   *
*  13. 2018/07/31   v1d1_2p1      1. Newly created corner models for HIA18-NMOS/HIA18-Diode/RTMOM. *
*                                 2. Newly created statistical models for SVT/LVT/ULVT/IO18/       *
*                                    IO18ud15/IO18ud12/IOLVT15/IOLVT15ud12/BJT/Diode/Resistor/     *
*                                    MOSCAP/RTMOM.                                                 *
*                                 3. Newly created mismatch models for SVT/LVT/ULVT/IO18/IO18ud15/ *
*                                    IO18ud12/IOLVT15/IOLVT15ud12/BJT/High-Resistor/RTMOM.         *
*                                 4. Newly created analog corner models for SVT/LVT/ULVT/IO18/     *
*                                    IO18ud15/IO18ud12/IOLVT15/IOLVT15ud12.                        *
*                                 5. Newly created flicker noise models for SVT/LVT/ULVT/IO18/     *
*                                    IO18ud15/IO18ud12/IOLVT15/IOLVT15ud12/High-Resistor.          *
*                                 6. Newly created thermal noise models for SVT/LVT/ULVT/IO18/     *
*                                    IO18ud15/IO18ud12/IOLVT15/IOLVT15ud12.                        *
*                                 7. Copied LC tank device models from v1d0_2p2 as                 *
*                                    placeholder in a plug-in model card.                          *
*												   *
*  12. 2018/06/27   v1d1_1p1      1. Newly created corner models for SVT/LVT/ULVT/IO18/IO18ud15/   *
*                                    IO18ud12/IOLVT15/IOLVT15ud12/PODE/BJT/Diode/Resistor/MOSCAP/  *
*                                    MIMCAP.                                                       *
*                                 2. Newly created Core MOSFET layout dependence effect models.    *
*                                 3. Copied flicker noise typical models from v1d0_2p2 as          *
*                                    placeholder for MOSFET and High-Resistor device models.       *
*                                 4. Copied thermal noise models from v1d0_2p2 as                  *
*                                    placeholder for MOSFET device models.                         *
*                                 5. Copied HIA18-NMOS/HIA18-Diode/RTMOM device models from        *
*                                    v1d0_2p2 as placeholder in a plug-in model card.              *
*                                 6. Copied LC tank device models from v1d0_2p2 as                 *
*                                    placeholder in a plug-in model card.                          *
*											           *
*  11. 2017/03/31   v1d0_2p2      1. Newly created aging models for SVT/LVT/ULVT/IO18/IO18ud15/    *
*                                    IOLVT15.                                                      *
*                                 2. Updated flicker noise models for SVT/LVT/ULVT/IO18/IO18ud15/  *
*                                    IO18ud12/IOLVT15/IOLVT15ud12.                                 *
*                                                                                                  *
*  10. 2017/03/10   v1d0_2p1      1. Newly created corner models for HIA18-NMOS/HIA18-Diode/RTMOM/ *
*                                    RF MOSCAP/RF RTMOM.                                           *
*                                 2. Newly created statistical models for SVT/LVT/ULVT/IO18/       *
*                                    IO18ud15/IO18ud12/IOLVT15/IOLVT15ud12/BJT/Diode/Resistor/     *
*                                    MOSCAP/RTMOM/RF MOSCAP/RF RTMOM.                              *
*                                 3. Newly created mismatch models for SVT/LVT/ULVT/IO18/IO18ud15/ *
*                                    IO18ud12/IOLVT15/IOLVT15ud12/BJT/High-Resistor/RTMOM.         *
*                                 4. Newly created analog corner models for SVT/LVT/ULVT/IO18/     *
*                                    IO18ud15/IO18ud12/IOLVT15/IOLVT15ud12.                        *
*                                 5. Newly created flicker noise models for SVT/LVT/ULVT/IO18/     *
*                                    IO18ud15/IO18ud12/IOLVT15/IOLVT15ud12/High-Resistor.          *
*                                 6. Newly created thermal noise models for SVT/LVT/ULVT/IO18/     *
*                                    IO18ud15/IO18ud12/IOLVT15/IOLVT15ud12.                        *
*                                 7. Newly created self-heating effect models for SVT/LVT/ULVT/    *
*                                    IO18/IO18ud15/IO18ud12/IOLVT15/IOLVT15ud12.                   *
*                                                                                                  *
*  9. 2017/02/17    v1d0_1p1      1. Newly created corner models for SVT/LVT/ULVT/IO18/IO18ud15/   *
*                                    IO18ud12/IOLVT15/IOLVT15ud12/PODE/BJT/Diode/Resistor/MOSCAP/  *
*                                    MIMCAP.                                                       *
*                                 2. Newly created Core MOSFET layout dependence effect models.    *
*                                 3. Copied flicker noise typical models from v0d9_2p1 as          *
*                                    placeholder for MOSFET and High-Resistor device models.       *
*                                 4. Copied thermal noise models from v0d9_2p1 as                  *
*                                    placeholder for MOSFET device models.                         *
*                                 5. Copied HIA18-NMOS/HIA18-Diode/RTMOM device models from        *
*                                    v0d9_2p1 as placeholder in a plug-in model card.              *
*                                 6. Copied LC tank device models from v0d9_2p1 as                 *
*                                    placeholder in a plug-in model card.                          *
*                                                                                                  *
*  8. 2016/12/01    v0d9_2p1      1. Newly created corner models for HIA18-NMOS/HIA18-Diode/RTMOM/ *
*                                    RF MOSCAP/RF RTMOM.                                           *
*                                 2. Newly created statistical models for SVT/LVT/ULVT/IO18/       *
*                                    IO18ud15/IO18ud12/IOLVT15/IOLVT15ud12/BJT/Diode/Resistor/     *
*                                    MOSCAP/RTMOM/RF MOSCAP/RF RTMOM.                              *
*                                 3. Newly created mismatch models for SVT/LVT/ULVT/IO18/IO18ud15/ *
*                                    IO18ud12/IOLVT15/IOLVT15ud12/BJT/High-Resistor/RTMOM.         *
*                                 4. Newly created analog corner models for SVT/LVT/ULVT/IO18/     *
*                                    IO18ud15/IO18ud12/IOLVT15/IOLVT15ud12.                        *
*                                 5. Newly created flicker noise models for SVT/LVT/ULVT/IO18/     *
*                                    IO18ud15/IO18ud12/IOLVT15/IOLVT15ud12/High-Resistor.          *
*                                 6. Newly created thermal noise models for SVT/LVT/ULVT/IO18/     *
*                                    IO18ud15/IO18ud12/IOLVT15/IOLVT15ud12.                        *
*                                 7. Newly created self-heating effect models for SVT/LVT/ULVT/    *
*                                    IO18/IO18ud15/IO18ud12/IOLVT15/IOLVT15ud12.                   *
*                                 8. Newly created aging models for SVT/LVT/ULVT/IO18/IO18ud15/    *
*                                    IOLVT15.                                                      *
*                                                                                                  *
*                                                                                                  *	
*  7. 2016/11/10    v0d9_1p1      1. Newly created corner models for SVT/LVT/ULVT/IO18/IO18ud15/   *
*                                    IO18ud12/IOLVT15/IOLVT15ud12/PODE/BJT/Diode/Resistor/MOSCAP/  *
*                                    MIMCAP.                                                       *
*                                 2. Newly created Core MOSFET layout dependence effect models.    *
*                                 3. Copied flicker noise typical models from v0d5_2p3 as          *
*                                    placeholder for MOSFET and High-Resistor device models.       *
*                                 4. Copied thermal noise models from v0d5_2p3 as                  *
*                                    placeholder for MOSFET device models.                         *
*                                 5. Copied HIA18-NMOS/HIA18-Diode/RTMOM device models from        *
*                                    v0d5_2p3 as placeholder in a plug-in model card.              *
*                                 6. Copied LC tank device models from v0d5_2p3 as                 *
*                                    placeholder in a plug-in model card.                          *
*                                                                                                  *
*  6. 2016/08/30    v0d5_2p3      1. Newly create corner and statistical model for floating n-well *
*                                    Hi-R resistor (rhim_psub).                                    *
*                                                                                                  *
*  5. 2016/08/09    v0d5_2p2      1. Enhanced age and self-heating libs in usage file.             *
*                                                                                                  *
*  4. 2016/08/08    v0d5_2p1      1. Newly created corner models for HIA18-NMOS/HIA18-Diode/RTMOM/ *
*                                    RF MOSCAP/RF RTMOM.                                           *
*                                 2. Newly created statistical models for SVT/LVT/ULVT/IO18/       *
*                                    IO18ud15/IO18ud12/IOLVT15/IOLVT15ud12/BJT/Diode/Resistor/     *
*                                    MOSCAP/RTMOM/RF MOSCAP/RF RTMOM.                              *
*                                 3. Newly created mismatch models for SVT/LVT/ULVT/IO18/IO18ud15/ *
*                                    IO18ud12/IOLVT15/IOLVT15ud12/BJT/High-Resistor/RTMOM.         *
*                                 4. Newly created analog corner models for SVT/LVT/ULVT/IO18/     *
*                                    IO18ud15/IO18ud12/IOLVT15/IOLVT15ud12.                        *
*                                 5. Newly created flicker noise models for SVT/LVT/ULVT/IO18/     *
*                                    IO18ud15/IO18ud12/IOLVT15/IOLVT15ud12/High-Resistor.          *
*                                 6. Newly created thermal noise models for SVT/LVT/ULVT/IO18/     *
*                                    IO18ud15/IO18ud12/IOLVT15/IOLVT15ud12.                        *
*                                 7. Newly created self-heating effect models for SVT/LVT/ULVT/    *
*                                    IO18/IO18ud15/IO18ud12/IOLVT15/IOLVT15ud12.                   *
*                                 8. Newly created aging models for SVT/LVT/ULVT/IO18/IO18ud15/    *
*                                    IOLVT15.                                                      *
*                                                                                                  *
*  3. 2016/07/22    v0d5_1p1      1. Newly created corner models for SVT/LVT/ULVT/IO18/IO18ud15/   *
*                                    IO18ud12/IOLVT15/IOLVT15ud12/PODE/BJT/Diode/Resistor/MOSCAP/  *
*                                    MIMCAP.                                                       *
*                                 2. Newly created Core MOSFET layout dependence effect models.    *
*                                 3. Copied HIA18-NMOS/HIA18-Diode/RTMOM device models from        *
*                                    v0d1_3p1 as placeholder in a plug-in model card.              *
*                                 4. Copied LC tank device models from v0d1_3p1 as placeholder in  *
*                                    a plug-in model card.                                         *
*                                                                                                  *
*                                                                                                  *
*  2. 2016/01/29    v0d1_3p1       1. Newly created corner models for IOLVT15/IOLVT15ud12/PODE/    *
*                                     HIA18-NMOS/HIA18-Diode/RTMOM/RF MOSCAP/RF RTMOM.             *
*                                  2. Newly created MOSFET layout dependence effect models for     *
*                                     IOLVT15 and IOLVT15ud12.                                     *
*                                  3. Newly created statistical models for SVT/LVT/ULVT/IO18/      *
*                                     IO18ud15/IO18ud12/MPODE/BJT/Diode/MOSCAP/RTMOM/              *
*                                     2T and 3T Resistor/RF MOSCAP/RF RTMOM.                       *
*                                  4. Newly created mismatch models for SVT/LVT/ULVT/IO18/         *
*                                     IO18ud15/IO18ud12/MPODE/BJT/RTMOM/2T and 3T High-Resistor.   *
*                                  5. Newly created analog corner models for SVT/LVT/ULVT/IO18/    *
*                                     IO18ud15/IO18ud12/MPODE.                                     *
*                                  6. Newly created flicker noise models for SVT/LVT/ULVT/IO18/    *
*                                     IO18ud15/IO18ud12/MPODE/2T and 3T High-Resistor.             *
*                                  7. Newly created thermal noise models for SVT/LVT/ULVT/IO18/    *
*                                     IO18ud15/IO18ud12/MPODE.                                     *
*                                                                                                  *
*  1. 2016/01/08    v0d1_1p1       1. Newly created corner models for SVT/LVT/ULVT/IO18/IO18ud15/  *
*                                     IO18ud12/PODE/MPODE/BJT/Diode/MOSCAP/MIMCAP/                 *
*                                     2T and 3T Resistor.                                          *
*                                  2. Newly created MOSFET layout dependence effect models for     *
*                                     SVT/LVT/ULVT/IO18/IO18ud15/IO18ud12/MPODE.                   *
*                                                                                                  *
****************************************************************************************************
****************************************************************************************************
* THIS MODEL LIB CONTAINS :                                                                        *
*                                                                                                  *
*  1.LIB stat                                                                                      *
*    (Common MOSFET statistical library)                                                           *
*                                                                                                  *
*  2.LIB stat_bip_dio                                                                              *
*    (Common BJT and Diode statistical library)                                                    *
*                                                                                                  *
*  3.LIB stat_res                                                                                  *
*    (Common Resistor statistical library)                                                         *
*                                                                                                  *
*  4.LIB stat_mom                                                                                  *
*    (Common MOM statistical library)                                                              *
*                                                                                                  *
*  5.LIB global_svt                                                                                *
*    (0.75V Standard-Vt devices with different geometric and global monte carlo models)            *
*                                                                                                  *
*  6.LIB global_lvt                                                                                *
*    (0.75V Low-Vt devices with different geometric and global monte carlo models)                 *
*                                                                                                  *
*  7.LIB global_ulvt                                                                               *
*    (0.75V Ultra Low-Vt devices with different geometric and global monte carlo models)           *
*                                                                                                  *
*  8.LIB global_lvt15                                                                              *
*    (1.5V I/O LVT devices with different geometric and global monte carlo models)                 *
*                                                                                                  *
*  9.LIB global_lvt15ud12                                                                          *
*    (1.5V under-drived 1.2V I/O LVT devices with different geometric and global monte carlo models)*
*                                                                                                  *
* 10.LIB global_18                                                                                 *
*    (1.8V I/O devices with different geometric and global monte carlo models)                     *
*                                                                                                  *
* 11.LIB global_18ud15                                                                             *
*    (1.8V under-drived 1.5V I/O devices with different geometric and global monte carlo models)   *
*                                                                                                  *
* 12.LIB global_18ud12                                                                             *
*    (1.8V under-drived 1.2V I/O devices with different geometric and global monte carlo models)   *
*                                                                                                  *
* 13.LIB Total_svt                                                                                 *
*    (0.75V Standard-Vt devices with different geometric and total monte carlo models)             *
*                                                                                                  *
* 14.LIB Total_lvt                                                                                 *
*    (0.75V Low-Vt devices with different geometric and total monte carlo models)                  *
*                                                                                                  *
* 15.LIB Total_ulvt                                                                                *
*    (0.75V Ultra Low-Vt devices with different geometric and total monte carlo models)            *
*                                                                                                  *
* 16.LIB Total_lvt15                                                                               *
*    (1.5V I/O LVT devices with different geometric and total monte carlo models)                  *
*                                                                                                  *
* 17.LIB Total_lvt15ud12                                                                           *
*    (1.5V under-drived 1.2V I/O LVT devices with different geometric and total monte carlo models)*
*                                                                                                  *
* 18.LIB Total_18                                                                                  *
*    (1.8V I/O devices with different geometric and total monte carlo models)                      *
*                                                                                                  *
* 19.LIB Total_18ud15                                                                              *
*    (1.8V under-drived 1.5V I/O devices with different geometric and total monte carlo models)    *
*                                                                                                  *
* 20.LIB Total_18ud12                                                                              *
*    (1.8V under-drived 1.2V I/O devices with different geometric and total monte carlo models)    *
*                                                                                                  *
* 21.LIB total_bip                                                                                 *
*    (0.75V P+/NW/PSUB vertical PNP bipolar total monte carlo model)                               *
*                                                                                                  *
* 22.LIB total_bip_npn                                                                             *
*    (0.75V N+/PW/DNW vertical NPN bipolar total monte carlo model)                                *
*                                                                                                  *
* 23.LIB total_dio                                                                                 *
*    (0.75V N+/PW, P+/NW and NW/PSUB diode global monte carlo model)                               *
*                                                                                                  *
* 24.LIB total_dio_18                                                                              *
*    (1.8V I/O N+/PW, P+/NW diode global monte carlo model)                                        *
*                                                                                                  *
* 25.LIB total_dio_dnw                                                                             *
*    (PW/DNW and DNW/PSUB diode global monte carlo model)                                          *
*                                                                                                  *
* 26.LIB total_res                                                                                 *
*    (Front-end resistor total monte carlo model)                                                  *
*                                                                                                  *
* 27.LIB total_disres                                                                              *
*    (Front-end distributed resistor total monte carlo model)                                      *
*                                                                                                  *
* 28.LIB total_rtmom                                                                               *
*    (RTMOM capacitor total monte carlo model)                                                     *
*                                                                                                  *
* 29.LIB total_mos_cap                                                                             *
*    (0.75V varactor global monte carlo model)                                                     *
*                                                                                                  *
* 30.LIB total_mos_cap_18                                                                          *
*    (1.8V I/O varactor global monte carlo model)                                                  *
*                                                                                                  *
* 31.LIB ttg_svt                                                                                   *
*        ssg_svt                                                                                   *
*        ffg_svt                                                                                   *
*        sfg_svt                                                                                   *
*        fsg_svt                                                                                   *
*    (0.75V Standard-Vt devices with different geometric and global corner models)                 *
*                                                                                                  *
* 32.LIB ttg_lvt                                                                                   *
*        ssg_lvt                                                                                   *
*        ffg_lvt                                                                                   *
*        sfg_lvt                                                                                   *
*        fsg_lvt                                                                                   *
*    (0.75V Low-Vt devices with different geometric and global corner models)                      *
*                                                                                                  *
* 33.LIB ttg_ulvt                                                                                  *
*        ssg_ulvt                                                                                  *
*        ffg_ulvt                                                                                  *
*        sfg_ulvt                                                                                  *
*        fsg_ulvt                                                                                  *
*    (0.75V Ultra Low-Vt devices with different geometric and global corner models)                *
*                                                                                                  *
* 34.LIB ttg_lvt15                                                                                 *
*        ssg_lvt15                                                                                 *
*        ffg_lvt15                                                                                 *
*        sfg_lvt15                                                                                 *
*        fsg_lvt15                                                                                 *
*    (1.5V I/O LVT devices with different geometric and global corner models)                      *
*                                                                                                  *
* 35.LIB ttg_lvt15ud12                                                                             *
*        ssg_lvt15ud12                                                                             *
*        ffg_lvt15ud12                                                                             *
*        sfg_lvt15ud12                                                                             *
*        fsg_lvt15ud12                                                                             *
*    (1.5V under-drived 1.2V I/O LVT devices with different geometric and global corner models)    *
*                                                                                                  *
* 36.LIB ttg_18                                                                                    *
*        ssg_18                                                                                    *
*        ffg_18                                                                                    *
*        sfg_18                                                                                    *
*        fsg_18                                                                                    *
*    (1.8V I/O devices with different geometric and global corner models)                          *
*                                                                                                  *
* 37.LIB ttg_18ud15                                                                                *
*        ssg_18ud15                                                                                *
*        ffg_18ud15                                                                                *
*        sfg_18ud15                                                                                *
*        fsg_18ud15                                                                                *
*    (1.8V under-drived 1.5V I/O devices with different geometric and global corner models)        *
*                                                                                                  *
* 38.LIB ttg_18ud12                                                                                *
*        ssg_18ud12                                                                                *
*        ffg_18ud12                                                                                *
*        sfg_18ud12                                                                                *
*        fsg_18ud12                                                                                *
*    (1.8V under-drived 1.2V I/O devices with different geometric and global corner models)        *
*                                                                                                  *
* 39.LIB ssag_svt                                                                                  *
*        ffag_svt                                                                                  *
*    (0.75V Standard-Vt devices with different geometric and analog global corner models)          *
*                                                                                                  *
* 40.LIB ssag_lvt                                                                                  *
*        ffag_lvt                                                                                  *
*    (0.75V Low-Vt devices with different geometric and analog global corner models)               *
*                                                                                                  *
* 41.LIB ssag_ulvt                                                                                 *
*        ffag_ulvt                                                                                 *
*    (0.75V Ultra Low-Vt devices with different geometric and analog global corner models)         *
*                                                                                                  *
* 42.LIB ssag_lvt15                                                                                *
*        ffag_lvt15                                                                                *
*    (1.5V I/O LVT devices with different geometric and analog global corner models)               *
*                                                                                                  *
* 43.LIB ssag_lvt15ud12                                                                            *
*        ffag_lvt15ud12                                                                            *
*    (1.5V under-drived 1.2V I/O LVT devices with different geometric and analog global corner models)*
*                                                                                                  *
* 44.LIB ssag_18                                                                                   *
*        ffag_18                                                                                   *
*    (1.8V I/O devices with different geometric and analog global corner models)                   *
*                                                                                                  *
* 45.LIB ssag_18ud15                                                                               *
*        ffag_18ud15                                                                               *
*    (1.8V under-drived 1.5V I/O devices with different geometric and analog global corner models) *
*                                                                                                  *
* 46.LIB ssag_18ud12                                                                               *
*        ffag_18ud12                                                                               *
*    (1.8V under-drived 1.2V I/O devices with different geometric and analog global corner models) *
*                                                                                                  *
* 47.LIB TT_svt                                                                                    *
*        SS_svt                                                                                    *
*        FF_svt                                                                                    *
*        SF_svt                                                                                    *
*        FS_svt                                                                                    *
*    (0.75V Standard-Vt devices with different geometric and corner models)                        *
*                                                                                                  *
* 48.LIB TT_lvt                                                                                    *
*        SS_lvt                                                                                    *
*        FF_lvt                                                                                    *
*        SF_lvt                                                                                    *
*        FS_lvt                                                                                    *
*    (0.75V Low-Vt devices with different geometric and corner models)                             *
*                                                                                                  *
* 49.LIB TT_ulvt                                                                                   *
*        SS_ulvt                                                                                   *
*        FF_ulvt                                                                                   *
*        SF_ulvt                                                                                   *
*        FS_ulvt                                                                                   *
*    (0.75V Ultra Low-Vt devices with different geometric and corner models)                       *
*                                                                                                  *
* 50.LIB TT_lvt15                                                                                  *
*        SS_lvt15                                                                                  *
*        FF_lvt15                                                                                  *
*        SF_lvt15                                                                                  *
*        FS_lvt15                                                                                  *
*    (1.5V I/O LVT devices with different geometric and corner models)                             *
*                                                                                                  *
* 51.LIB TT_lvt15ud12                                                                              *
*        SS_lvt15ud12                                                                              *
*        FF_lvt15ud12                                                                              *
*        SF_lvt15ud12                                                                              *
*        FS_lvt15ud12                                                                              *
*    (1.5V under-drived 1.2V I/O LVT devices with different geometric and corner models)           *
*                                                                                                  *
* 52.LIB TT_18                                                                                     *
*        SS_18                                                                                     *
*        FF_18                                                                                     *
*        SF_18                                                                                     *
*        FS_18                                                                                     *
*    (1.8V I/O devices with different geometric and corner models)                                 *
*                                                                                                  *
* 53.LIB TT_18ud15                                                                                 *
*        SS_18ud15                                                                                 *
*        FF_18ud15                                                                                 *
*        SF_18ud15                                                                                 *
*        FS_18ud15                                                                                 *
*    (1.8V under-drived 1.5V I/O devices with different geometric and corner models)               *
*                                                                                                  *
* 54.LIB TT_18ud12                                                                                 *
*        SS_18ud12                                                                                 *
*        FF_18ud12                                                                                 *
*        SF_18ud12                                                                                 *
*        FS_18ud12                                                                                 *
*    (1.8V under-drived 1.2V I/O devices with different geometric and corner models)               *
*                                                                                                  *
* 55.LIB TT_hia18                                                                                  *
*        SS_hia18                                                                                  *
*        FF_hia18                                                                                  *
*        SF_hia18                                                                                  *
*        FS_hia18                                                                                  *
*    (1.8V I/O High-Current ESD devices with different geometric and corner models)                *
*                                                                                                  *
* 56.LIB TT_BIP                                                                                    *
*        SS_BIP                                                                                    *
*        FF_BIP                                                                                    *
*    (0.75V P+/NW/PSUB Vertical PNP Bipolar)                                                       *
*                                                                                                  *
* 57.LIB TT_BIP_NPN                                                                                *
*        SS_BIP_NPN                                                                                *
*        FF_BIP_NPN                                                                                *
*    (0.75V N+/PW/DNW Vertical NPN Bipolar)                                                        *
*                                                                                                  *
* 58.LIB TT_DIO                                                                                    *
*        SS_DIO                                                                                    *
*        FF_DIO                                                                                    *
*    (0.75V N+/PW, P+/NW and NW/PSUB Diode)                                                        *
*                                                                                                  *
* 59.LIB TT_DIO_18                                                                                 *
*        SS_DIO_18                                                                                 *
*        FF_DIO_18                                                                                 *
*    (1.8V I/O N+/PW and P+/NW Diode)                                                              *
*                                                                                                  *
* 60.LIB TT_DIO_dnw                                                                                *
*        SS_DIO_dnw                                                                                *
*        FF_DIO_dnw                                                                                *
*    (PW/DNW and DNW/PSUB Diode)                                                                   *
*                                                                                                  *
* 61.LIB TT_DIO_hia18                                                                              *
*        SS_DIO_hia18                                                                              *
*        FF_DIO_hia18                                                                              *
*    (1.8V I/O High-Current ESD Diode)                                                             *
*                                                                                                  *
* 62.LIB TT_RES                                                                                    *
*        SS_RES                                                                                    *
*        FF_RES                                                                                    *
*    (Front-end Resistor)                                                                          *
*                                                                                                  *
* 63.LIB TT_DISRES                                                                                 *
*        SS_DISRES                                                                                 *
*        FF_DISRES                                                                                 *
*    (Front-end Distributed Resistor)                                                              *
*                                                                                                  *
* 64.LIB TT_RTMOM                                                                                  *
*        SS_RTMOM                                                                                  *
*        FF_RTMOM                                                                                  *
*    (Rotated Capacitor of Metal-Oxide-Metal)                                                      *
*                                                                                                  *
* 65.LIB TT_MIM                                                                                    *
*        SS_MIM                                                                                    *
*        FF_MIM                                                                                    *
*    (MIM Capacitor)                                                                               *
*                                                                                                  *
* 66.LIB TT_MOS_CAP                                                                                *
*        SS_MOS_CAP                                                                                *
*        FF_MOS_CAP                                                                                *
*    (0.75V NMOS in N-Well Varactor)                                                               *
*                                                                                                  *
* 67.LIB TT_MOS_CAP_18                                                                             *
*        SS_MOS_CAP_18                                                                             *
*        FF_MOS_CAP_18                                                                             *
*    (1.8V I/O NMOS in N-Well Varactor)                                                            *
*                                                                                                  *
****************************************************************************************************

.LIB setup_age
.param phys_id=0
.param dagetime=0
.param age_unit=0
.param tr_start=0
.param tr_end=1000
.param r_hcin=1
.param r_hcip=1
.param r_btin=1
.param r_btip=1
.param r_bti_max_delta=0
.param multiwave=0
.param vgsdmax=10
.param tmiageflag=0
.param tmishe=0
.param shevmod=0
.param sheimod=2
.param alter_flag=1
.param sorting_num=-1
.param sorting_phys=-1
.param sorting_item=-1
.param lifetime_item=0
.param lifetime_value=10
.param age_specmod=-1
.param age_spotflag=0
.param etmiagechkflag=1
.param age_globalflag=0
.param age_stopmod=0
.param age_med_flag=0
.param lcflag=0
.param inputflag=0
.param lc_dvtlin_hcin=0
.param lc_dvtlin_hcip=0
.param lc_dvtlin_btin=0
.param lc_dvtlin_btip=0
.param tthflag=0
.param tthn_r=5e-9
.param tthn_f=5e-9
.param tthp_r=5e-9
.param tthp_f=5e-9
.param recovbtiflag=0
.param rec_delay_flag=0
.param tmitddbflag=0
.param tddbmod=0
.param tddb_fail_perc=0.001
.param tddb_stress_time=-1
.param area_factorn_core=-1
.param area_predictn_core=-1
.param area_factorp_core=-1
.param area_predictp_core=-1
.param area_factorn_io=-1
.param area_predictn_io=-1
.param area_factorp_io=-1
.param area_predictp_io=-1
.param tmicoaflag=2
.param coa_sorting_num=1000
.ENDL setup_age

.LIB setup_svt
.lib 'cln7_1d8_sp_v1d2_2p2.l' setup_age
.param phys_id_mos_svt='phys_id'
.param dagetime_mos_svt='dagetime'
.param age_unit_mos_svt='age_unit'
.param tr_start_mos_svt='tr_start'
.param tr_end_mos_svt='tr_end'
.param r_hcin_mos_svt='r_hcin'
.param r_hcip_mos_svt='r_hcip'
.param r_btin_mos_svt='r_btin'
.param r_btip_mos_svt='r_btip'
.param r_bti_max_delta_mos_svt='r_bti_max_delta'
.param multiwave_mos_svt='multiwave'
.param vgsdmax_mos_svt='vgsdmax'
.param tmishe_mos_svt='tmishe'
.param shevmod_mos_svt='shevmod'
.param sheimod_mos_svt='sheimod'
.param lifetime_value_mos_svt='lifetime_value'
.param lc_dvtlin_hcin_mos_svt='lc_dvtlin_hcin'
.param lc_dvtlin_hcip_mos_svt='lc_dvtlin_hcip'
.param lc_dvtlin_btin_mos_svt='lc_dvtlin_btin'
.param lc_dvtlin_btip_mos_svt='lc_dvtlin_btip'
.param tthn_r_mos_svt='tthn_r'
.param tthn_f_mos_svt='tthn_f'
.param tthp_r_mos_svt='tthp_r'
.param tthp_f_mos_svt='tthp_f'
.param tddb_fail_perc_mos_svt='tddb_fail_perc'
.param coa_nonstress_max_mos_svt=0.96
.param coa_stress_max_mos_svt='0.75*1.5'
.param coa_bulk_max_mos_svt='0.75*2.4'
.param alter_flag_mos_svt='alter_flag'
.param ccodflag_mos_svt=0
.param ccosflag_mos_svt=0
.param rcodflag_mos_svt=0
.param rcosflag_mos_svt=0
.param rgflag_mos_svt=0
.param ngconflag_mos_svt=1
.param igflag_mos_svt=1
.param iboffwcflag_mos_svt=0
.param ccoskewflag_mos_svt=0
.param rgskewflag_mos_svt=0
.param sigma_factorn_svt=1
.param globalflag_mos_svt=1
.param totalflag_mos_svt=1
.param global_factorn_svt=1
.param mismatchflag_mos_svt=1
.param matchingflag_mos_svt=0
.param edgeflag_mos_svt=0
.param local_factorn_svt=1
.param sigma_factorp_svt=1
.param global_factorp_svt=1
.param local_factorp_svt=1
.param noiseflagn_mos_svt=0
.param noiseflagn_mc_mos_svt=0
.param fnc_sigma_factorn_svt=1
.param fnc_global_factorn_svt=1
.param noiseflagwmcn_mos_svt=0
.param noiseflagp_mos_svt=0
.param noiseflagp_mc_mos_svt=0
.param fnc_sigma_factorp_svt=1
.param fnc_global_factorp_svt=1
.param noiseflagwmcp_mos_svt=0
.ENDL setup_svt

.LIB setup_lvt
.lib 'cln7_1d8_sp_v1d2_2p2.l' setup_age
.param phys_id_mos_lvt='phys_id'
.param dagetime_mos_lvt='dagetime'
.param age_unit_mos_lvt='age_unit'
.param tr_start_mos_lvt='tr_start'
.param tr_end_mos_lvt='tr_end'
.param r_hcin_mos_lvt='r_hcin'
.param r_hcip_mos_lvt='r_hcip'
.param r_btin_mos_lvt='r_btin'
.param r_btip_mos_lvt='r_btip'
.param r_bti_max_delta_mos_lvt='r_bti_max_delta'
.param multiwave_mos_lvt='multiwave'
.param vgsdmax_mos_lvt='vgsdmax'
.param tmishe_mos_lvt='tmishe'
.param shevmod_mos_lvt='shevmod'
.param sheimod_mos_lvt='sheimod'
.param lifetime_value_mos_lvt='lifetime_value'
.param lc_dvtlin_hcin_mos_lvt='lc_dvtlin_hcin'
.param lc_dvtlin_hcip_mos_lvt='lc_dvtlin_hcip'
.param lc_dvtlin_btin_mos_lvt='lc_dvtlin_btin'
.param lc_dvtlin_btip_mos_lvt='lc_dvtlin_btip'
.param tthn_r_mos_lvt='tthn_r'
.param tthn_f_mos_lvt='tthn_f'
.param tthp_r_mos_lvt='tthp_r'
.param tthp_f_mos_lvt='tthp_f'
.param tddb_fail_perc_mos_lvt='tddb_fail_perc'
.param coa_nonstress_max_mos_lvt=0.96
.param coa_stress_max_mos_lvt='0.75*1.5'
.param coa_bulk_max_mos_lvt='0.75*2.4'
.param alter_flag_mos_lvt='alter_flag'
.param ccodflag_mos_lvt=0
.param ccosflag_mos_lvt=0
.param rcodflag_mos_lvt=0
.param rcosflag_mos_lvt=0
.param rgflag_mos_lvt=0
.param ngconflag_mos_lvt=1
.param igflag_mos_lvt=1
.param iboffwcflag_mos_lvt=0
.param ccoskewflag_mos_lvt=0
.param rgskewflag_mos_lvt=0
.param sigma_factorn_lvt=1
.param globalflag_mos_lvt=1
.param totalflag_mos_lvt=1
.param global_factorn_lvt=1
.param mismatchflag_mos_lvt=1
.param matchingflag_mos_lvt=0
.param edgeflag_mos_lvt=0
.param local_factorn_lvt=1
.param sigma_factorp_lvt=1
.param global_factorp_lvt=1
.param local_factorp_lvt=1
.param noiseflagn_mos_lvt=0
.param noiseflagn_mc_mos_lvt=0
.param fnc_sigma_factorn_lvt=1
.param fnc_global_factorn_lvt=1
.param noiseflagwmcn_mos_lvt=0
.param noiseflagp_mos_lvt=0
.param noiseflagp_mc_mos_lvt=0
.param fnc_sigma_factorp_lvt=1
.param fnc_global_factorp_lvt=1
.param noiseflagwmcp_mos_lvt=0
.ENDL setup_lvt

.LIB setup_ulvt
.lib 'cln7_1d8_sp_v1d2_2p2.l' setup_age
.param phys_id_mos_ulvt='phys_id'
.param dagetime_mos_ulvt='dagetime'
.param age_unit_mos_ulvt='age_unit'
.param tr_start_mos_ulvt='tr_start'
.param tr_end_mos_ulvt='tr_end'
.param r_hcin_mos_ulvt='r_hcin'
.param r_hcip_mos_ulvt='r_hcip'
.param r_btin_mos_ulvt='r_btin'
.param r_btip_mos_ulvt='r_btip'
.param r_bti_max_delta_mos_ulvt='r_bti_max_delta'
.param multiwave_mos_ulvt='multiwave'
.param vgsdmax_mos_ulvt='vgsdmax'
.param tmishe_mos_ulvt='tmishe'
.param shevmod_mos_ulvt='shevmod'
.param sheimod_mos_ulvt='sheimod'
.param lifetime_value_mos_ulvt='lifetime_value'
.param lc_dvtlin_hcin_mos_ulvt='lc_dvtlin_hcin'
.param lc_dvtlin_hcip_mos_ulvt='lc_dvtlin_hcip'
.param lc_dvtlin_btin_mos_ulvt='lc_dvtlin_btin'
.param lc_dvtlin_btip_mos_ulvt='lc_dvtlin_btip'
.param tthn_r_mos_ulvt='tthn_r'
.param tthn_f_mos_ulvt='tthn_f'
.param tthp_r_mos_ulvt='tthp_r'
.param tthp_f_mos_ulvt='tthp_f'
.param tddb_fail_perc_mos_ulvt='tddb_fail_perc'
.param coa_nonstress_max_mos_ulvt=0.96
.param coa_stress_max_mos_ulvt='0.75*1.5'
.param coa_bulk_max_mos_ulvt='0.75*2.4'
.param alter_flag_mos_ulvt='alter_flag'
.param ccodflag_mos_ulvt=0
.param ccosflag_mos_ulvt=0
.param rcodflag_mos_ulvt=0
.param rcosflag_mos_ulvt=0
.param rgflag_mos_ulvt=0
.param ngconflag_mos_ulvt=1
.param igflag_mos_ulvt=1
.param iboffwcflag_mos_ulvt=0
.param ccoskewflag_mos_ulvt=0
.param rgskewflag_mos_ulvt=0
.param sigma_factorn_ulvt=1
.param globalflag_mos_ulvt=1
.param totalflag_mos_ulvt=1
.param global_factorn_ulvt=1
.param mismatchflag_mos_ulvt=1
.param matchingflag_mos_ulvt=0
.param edgeflag_mos_ulvt=0
.param local_factorn_ulvt=1
.param sigma_factorp_ulvt=1
.param global_factorp_ulvt=1
.param local_factorp_ulvt=1
.param noiseflagn_mos_ulvt=0
.param noiseflagn_mc_mos_ulvt=0
.param fnc_sigma_factorn_ulvt=1
.param fnc_global_factorn_ulvt=1
.param noiseflagwmcn_mos_ulvt=0
.param noiseflagp_mos_ulvt=0
.param noiseflagp_mc_mos_ulvt=0
.param fnc_sigma_factorp_ulvt=1
.param fnc_global_factorp_ulvt=1
.param noiseflagwmcp_mos_ulvt=0
.ENDL setup_ulvt

.LIB setup_lvt15
.lib 'cln7_1d8_sp_v1d2_2p2.l' setup_age
.param phys_id_mos_lvt15='phys_id'
.param dagetime_mos_lvt15='dagetime'
.param age_unit_mos_lvt15='age_unit'
.param tr_start_mos_lvt15='tr_start'
.param tr_end_mos_lvt15='tr_end'
.param r_hcin_mos_lvt15='r_hcin'
.param r_hcip_mos_lvt15='r_hcip'
.param r_btin_mos_lvt15='r_btin'
.param r_btip_mos_lvt15='r_btip'
.param r_bti_max_delta_mos_lvt15='r_bti_max_delta'
.param multiwave_mos_lvt15='multiwave'
.param vgsdmax_mos_lvt15='vgsdmax'
.param tmishe_mos_lvt15='tmishe'
.param shevmod_mos_lvt15='shevmod'
.param sheimod_mos_lvt15='sheimod'
.param lifetime_value_mos_lvt15='lifetime_value'
.param tthn_r_mos_lvt15='tthn_r'
.param tthn_f_mos_lvt15='tthn_f'
.param tthp_r_mos_lvt15='tthp_r'
.param tthp_f_mos_lvt15='tthp_f'
.param tddb_fail_perc_mos_lvt15='tddb_fail_perc'
.param coa_nonstress_max_mos_lvt15='1.5*1.2'
.param coa_stress_max_mos_lvt15='1.5*1.5'
.param coa_bulk_max_mos_lvt15='1.5*2.4'
.param alter_flag_mos_lvt15='alter_flag'
.param ccodflag_mos_lvt15=0
.param ccosflag_mos_lvt15=0
.param rcodflag_mos_lvt15=0
.param rcosflag_mos_lvt15=0
.param rgflag_mos_lvt15=0
.param ngconflag_mos_lvt15=1
.param igflag_mos_lvt15=0
.param iboffwcflag_mos_lvt15=0
.param ccoskewflag_mos_lvt15=0
.param rgskewflag_mos_lvt15=0
.param sigma_factorn_lvt15=1
.param globalflag_mos_lvt15=1
.param totalflag_mos_lvt15=1
.param global_factorn_lvt15=1
.param mismatchflag_mos_lvt15=1
.param matchingflag_mos_lvt15=0
.param edgeflag_mos_lvt15=0
.param local_factorn_lvt15=1
.param sigma_factorp_lvt15=1
.param global_factorp_lvt15=1
.param local_factorp_lvt15=1
.param noiseflagn_mos_lvt15=0
.param noiseflagn_mc_mos_lvt15=0
.param fnc_sigma_factorn_lvt15=1
.param fnc_global_factorn_lvt15=1
.param noiseflagwmcn_mos_lvt15=0
.param noiseflagp_mos_lvt15=0
.param noiseflagp_mc_mos_lvt15=0
.param fnc_sigma_factorp_lvt15=1
.param fnc_global_factorp_lvt15=1
.param noiseflagwmcp_mos_lvt15=0
.ENDL setup_lvt15

.LIB setup_lvt15ud12
.lib 'cln7_1d8_sp_v1d2_2p2.l' setup_age
.param phys_id_mos_lvt15ud12='phys_id'
.param dagetime_mos_lvt15ud12='dagetime'
.param age_unit_mos_lvt15ud12='age_unit'
.param tr_start_mos_lvt15ud12='tr_start'
.param tr_end_mos_lvt15ud12='tr_end'
.param r_hcin_mos_lvt15ud12='r_hcin'
.param r_hcip_mos_lvt15ud12='r_hcip'
.param r_btin_mos_lvt15ud12='r_btin'
.param r_btip_mos_lvt15ud12='r_btip'
.param r_bti_max_delta_mos_lvt15ud12='r_bti_max_delta'
.param multiwave_mos_lvt15ud12='multiwave'
.param vgsdmax_mos_lvt15ud12='vgsdmax'
.param tmishe_mos_lvt15ud12='tmishe'
.param shevmod_mos_lvt15ud12='shevmod'
.param sheimod_mos_lvt15ud12='sheimod'
.param lifetime_value_mos_lvt15ud12='lifetime_value'
.param tthn_r_mos_lvt15ud12='tthn_r'
.param tthn_f_mos_lvt15ud12='tthn_f'
.param tthp_r_mos_lvt15ud12='tthp_r'
.param tthp_f_mos_lvt15ud12='tthp_f'
.param tddb_fail_perc_mos_lvt15ud12='tddb_fail_perc'
.param coa_nonstress_max_mos_lvt15ud12='1.2*1.2'
.param coa_stress_max_mos_lvt15ud12='1.2*1.5'
.param coa_bulk_max_mos_lvt15ud12='1.2*2.4'
.param alter_flag_mos_lvt15ud12='alter_flag'
.param ccodflag_mos_lvt15ud12=0
.param ccosflag_mos_lvt15ud12=0
.param rcodflag_mos_lvt15ud12=0
.param rcosflag_mos_lvt15ud12=0
.param rgflag_mos_lvt15ud12=0
.param ngconflag_mos_lvt15ud12=1
.param igflag_mos_lvt15ud12=0
.param iboffwcflag_mos_lvt15ud12=0
.param ccoskewflag_mos_lvt15ud12=0
.param rgskewflag_mos_lvt15ud12=0
.param sigma_factorn_lvt15ud12=1
.param globalflag_mos_lvt15ud12=1
.param totalflag_mos_lvt15ud12=1
.param global_factorn_lvt15ud12=1
.param mismatchflag_mos_lvt15ud12=1
.param matchingflag_mos_lvt15ud12=0
.param edgeflag_mos_lvt15ud12=0
.param local_factorn_lvt15ud12=1
.param sigma_factorp_lvt15ud12=1
.param global_factorp_lvt15ud12=1
.param local_factorp_lvt15ud12=1
.param noiseflagn_mos_lvt15ud12=0
.param noiseflagn_mc_mos_lvt15ud12=0
.param fnc_sigma_factorn_lvt15ud12=1
.param fnc_global_factorn_lvt15ud12=1
.param noiseflagwmcn_mos_lvt15ud12=0
.param noiseflagp_mos_lvt15ud12=0
.param noiseflagp_mc_mos_lvt15ud12=0
.param fnc_sigma_factorp_lvt15ud12=1
.param fnc_global_factorp_lvt15ud12=1
.param noiseflagwmcp_mos_lvt15ud12=0
.ENDL setup_lvt15ud12

.LIB setup_18
.lib 'cln7_1d8_sp_v1d2_2p2.l' setup_age
.param phys_id_mos_18='phys_id'
.param dagetime_mos_18='dagetime'
.param age_unit_mos_18='age_unit'
.param tr_start_mos_18='tr_start'
.param tr_end_mos_18='tr_end'
.param r_hcin_mos_18='r_hcin'
.param r_hcip_mos_18='r_hcip'
.param r_btin_mos_18='r_btin'
.param r_btip_mos_18='r_btip'
.param r_bti_max_delta_mos_18='r_bti_max_delta'
.param multiwave_mos_18='multiwave'
.param vgsdmax_mos_18='vgsdmax'
.param tmishe_mos_18='tmishe'
.param shevmod_mos_18='shevmod'
.param sheimod_mos_18='sheimod'
.param lifetime_value_mos_18='lifetime_value'
.param tthn_r_mos_18='tthn_r'
.param tthn_f_mos_18='tthn_f'
.param tthp_r_mos_18='tthp_r'
.param tthp_f_mos_18='tthp_f'
.param tddb_fail_perc_mos_18='tddb_fail_perc'
.param coa_nonstress_max_mos_18='1.8*1.2'
.param coa_stress_max_mos_18='1.8*1.5'
.param coa_bulk_max_mos_18='1.8*2.4'
.param alter_flag_mos_18='alter_flag'
.param ccodflag_mos_18=0
.param ccosflag_mos_18=0
.param rcodflag_mos_18=0
.param rcosflag_mos_18=0
.param rgflag_mos_18=0
.param ngconflag_mos_18=1
.param igflag_mos_18=0
.param iboffwcflag_mos_18=0
.param ccoskewflag_mos_18=0
.param rgskewflag_mos_18=0
.param sigma_factorn_18=1
.param globalflag_mos_18=1
.param totalflag_mos_18=1
.param global_factorn_18=1
.param mismatchflag_mos_18=1
.param matchingflag_mos_18=0
.param edgeflag_mos_18=0
.param local_factorn_18=1
.param sigma_factorp_18=1
.param global_factorp_18=1
.param local_factorp_18=1
.param noiseflagn_mos_18=0
.param noiseflagn_mc_mos_18=0
.param fnc_sigma_factorn_18=1
.param fnc_global_factorn_18=1
.param noiseflagwmcn_mos_18=0
.param noiseflagp_mos_18=0
.param noiseflagp_mc_mos_18=0
.param fnc_sigma_factorp_18=1
.param fnc_global_factorp_18=1
.param noiseflagwmcp_mos_18=0
.ENDL setup_18

.LIB setup_18ud15
.lib 'cln7_1d8_sp_v1d2_2p2.l' setup_age
.param phys_id_mos_18ud15='phys_id'
.param dagetime_mos_18ud15='dagetime'
.param age_unit_mos_18ud15='age_unit'
.param tr_start_mos_18ud15='tr_start'
.param tr_end_mos_18ud15='tr_end'
.param r_hcin_mos_18ud15='r_hcin'
.param r_hcip_mos_18ud15='r_hcip'
.param r_btin_mos_18ud15='r_btin'
.param r_btip_mos_18ud15='r_btip'
.param r_bti_max_delta_mos_18ud15='r_bti_max_delta'
.param multiwave_mos_18ud15='multiwave'
.param vgsdmax_mos_18ud15='vgsdmax'
.param tmishe_mos_18ud15='tmishe'
.param shevmod_mos_18ud15='shevmod'
.param sheimod_mos_18ud15='sheimod'
.param lifetime_value_mos_18ud15='lifetime_value'
.param tthn_r_mos_18ud15='tthn_r'
.param tthn_f_mos_18ud15='tthn_f'
.param tthp_r_mos_18ud15='tthp_r'
.param tthp_f_mos_18ud15='tthp_f'
.param tddb_fail_perc_mos_18ud15='tddb_fail_perc'
.param coa_nonstress_max_mos_18ud15='1.5*1.2'
.param coa_stress_max_mos_18ud15='1.5*1.5'
.param coa_bulk_max_mos_18ud15='1.5*2.4'
.param alter_flag_mos_18ud15='alter_flag'
.param ccodflag_mos_18ud15=0
.param ccosflag_mos_18ud15=0
.param rcodflag_mos_18ud15=0
.param rcosflag_mos_18ud15=0
.param rgflag_mos_18ud15=0
.param ngconflag_mos_18ud15=1
.param igflag_mos_18ud15=0
.param iboffwcflag_mos_18ud15=0
.param ccoskewflag_mos_18ud15=0
.param rgskewflag_mos_18ud15=0
.param sigma_factorn_18ud15=1
.param globalflag_mos_18ud15=1
.param totalflag_mos_18ud15=1
.param global_factorn_18ud15=1
.param mismatchflag_mos_18ud15=1
.param matchingflag_mos_18ud15=0
.param edgeflag_mos_18ud15=0
.param local_factorn_18ud15=1
.param sigma_factorp_18ud15=1
.param global_factorp_18ud15=1
.param local_factorp_18ud15=1
.param noiseflagn_mos_18ud15=0
.param noiseflagn_mc_mos_18ud15=0
.param fnc_sigma_factorn_18ud15=1
.param fnc_global_factorn_18ud15=1
.param noiseflagwmcn_mos_18ud15=0
.param noiseflagp_mos_18ud15=0
.param noiseflagp_mc_mos_18ud15=0
.param fnc_sigma_factorp_18ud15=1
.param fnc_global_factorp_18ud15=1
.param noiseflagwmcp_mos_18ud15=0
.ENDL setup_18ud15

.LIB setup_18ud12
.lib 'cln7_1d8_sp_v1d2_2p2.l' setup_age
.param phys_id_mos_18ud12='phys_id'
.param dagetime_mos_18ud12='dagetime'
.param age_unit_mos_18ud12='age_unit'
.param tr_start_mos_18ud12='tr_start'
.param tr_end_mos_18ud12='tr_end'
.param r_hcin_mos_18ud12='r_hcin'
.param r_hcip_mos_18ud12='r_hcip'
.param r_btin_mos_18ud12='r_btin'
.param r_btip_mos_18ud12='r_btip'
.param r_bti_max_delta_mos_18ud12='r_bti_max_delta'
.param multiwave_mos_18ud12='multiwave'
.param vgsdmax_mos_18ud12='vgsdmax'
.param tmishe_mos_18ud12='tmishe'
.param shevmod_mos_18ud12='shevmod'
.param sheimod_mos_18ud12='sheimod'
.param lifetime_value_mos_18ud12='lifetime_value'
.param tthn_r_mos_18ud12='tthn_r'
.param tthn_f_mos_18ud12='tthn_f'
.param tthp_r_mos_18ud12='tthp_r'
.param tthp_f_mos_18ud12='tthp_f'
.param tddb_fail_perc_mos_18ud12='tddb_fail_perc'
.param coa_nonstress_max_mos_18ud12='1.2*1.2'
.param coa_stress_max_mos_18ud12='1.2*1.5'
.param coa_bulk_max_mos_18ud12='1.2*2.4'
.param alter_flag_mos_18ud12='alter_flag'
.param ccodflag_mos_18ud12=0
.param ccosflag_mos_18ud12=0
.param rcodflag_mos_18ud12=0
.param rcosflag_mos_18ud12=0
.param rgflag_mos_18ud12=0
.param ngconflag_mos_18ud12=1
.param igflag_mos_18ud12=0
.param iboffwcflag_mos_18ud12=0
.param ccoskewflag_mos_18ud12=0
.param rgskewflag_mos_18ud12=0
.param sigma_factorn_18ud12=1
.param globalflag_mos_18ud12=1
.param totalflag_mos_18ud12=1
.param global_factorn_18ud12=1
.param mismatchflag_mos_18ud12=1
.param matchingflag_mos_18ud12=0
.param edgeflag_mos_18ud12=0
.param local_factorn_18ud12=1
.param sigma_factorp_18ud12=1
.param global_factorp_18ud12=1
.param local_factorp_18ud12=1
.param noiseflagn_mos_18ud12=0
.param noiseflagn_mc_mos_18ud12=0
.param fnc_sigma_factorn_18ud12=1
.param fnc_global_factorn_18ud12=1
.param noiseflagwmcn_mos_18ud12=0
.param noiseflagp_mos_18ud12=0
.param noiseflagp_mc_mos_18ud12=0
.param fnc_sigma_factorp_18ud12=1
.param fnc_global_factorp_18ud12=1
.param noiseflagwmcp_mos_18ud12=0
.ENDL setup_18ud12

.LIB setup_hia18
.lib 'cln7_1d8_sp_v1d2_2p2.l' setup_age
.param phys_id_mos_hia18='phys_id'
.param dagetime_mos_hia18='dagetime'
.param age_unit_mos_hia18='age_unit'
.param tr_start_mos_hia18='tr_start'
.param tr_end_mos_hia18='tr_end'
.param r_hcin_mos_hia18='r_hcin'
.param r_btin_mos_hia18='r_btin'
.param r_bti_max_delta_mos_hia18='r_bti_max_delta'
.param multiwave_mos_hia18='multiwave'
.param vgsdmax_mos_hia18='vgsdmax'
.param tmishe_mos_hia18='tmishe'
.param shevmod_mos_hia18='shevmod'
.param sheimod_mos_hia18='sheimod'
.param lifetime_value_mos_hia18='lifetime_value'
.param tthn_r_mos_hia18='tthn_r'
.param tthn_f_mos_hia18='tthn_f'
.param tddb_fail_perc_mos_hia18='tddb_fail_perc'
.param coa_nonstress_max_mos_hia18='1.8*1.2'
.param coa_stress_max_mos_hia18='1.8*1.5'
.param coa_bulk_max_mos_hia18='1.8*2.4'
.param alter_flag_mos_hia18='alter_flag'
.param ccodflag_mos_hia18=0
.param ccosflag_mos_hia18=0
.param rcodflag_mos_hia18=0
.param rcosflag_mos_hia18=0
.param rgflag_mos_hia18=0
.param ngconflag_mos_hia18=1
.param igflag_mos_hia18=0
.param iboffwcflag_mos_hia18=0
.param ccoskewflag_mos_hia18=0
.param rgskewflag_mos_hia18=0
.param sigma_factorn_hia18=1
.ENDL setup_hia18

.LIB setup_bip
.param sigma_factor_bip=1
.param mismatchflag_bip=1
.param local_factor_bip=1
.ENDL setup_bip

.LIB setup_bip_npn
.param sigma_factor_bip_npn=1
.param mismatchflag_bip_npn=1
.param local_factor_bip_npn=1
.ENDL setup_bip_npn

.LIB setup_res
.param scale_res=1
.param sigma_factor_res=1
.param rcoflag_res=0
.ENDL setup_res

.LIB setup_disres
.param scale_disres=1
.param sigma_factor_disres=1
.param local_factor_disres=1
.param mismatchflag_disres=1
.param rcoflag_disres=0
.param rnoiseflag_disres=0
.param capflag_disres=0
.ENDL setup_disres

.LIB setup_cap
.param scale_cap=1
.param ccoflag_cap=0
.param sigma_factor_cap=1
.param rgflag_cap=0
.param igflag_cap=1
.param rgskewflag_cap=0
.param ngconflag_cap=1
.ENDL setup_cap

.LIB setup_cap_18
.param scale_cap_18=1
.param ccoflag_cap_18=0
.param sigma_factor_cap_18=1
.param rgflag_cap_18=0
.param igflag_cap_18=0
.param rgskewflag_cap_18=0
.param ngconflag_cap_18=1
.ENDL setup_cap_18

.LIB setup_rtmom
.param scale_rtmom=1
.param mismatchflag_rtmom=1
.param sigma_factor_rtmom=1
.param local_factor_rtmom=1
.ENDL setup_rtmom

.LIB setup_mim
.param scale_mim=1
.param sigma_factor_mim=1
.param capflag_mim=0
.ENDL setup_mim

.LIB setup_dio
.param scale_dio=1
.param sigma_factor_dio=1
.ENDL setup_dio

.LIB setup_dio_18
.param scale_dio_18=1
.param sigma_factor_dio_18=1
.ENDL setup_dio_18

.LIB setup_dio_dnw
.param sigma_factor_dio_dnw=1
.ENDL setup_dio_dnw

.LIB setup_dio_hia18
.param scale_dio_hia18=1
.param sigma_factor_dio_hia18=1
.ENDL setup_dio_hia18

***************************     COMMON STATISTICAL LIBRARY      ***************************
.LIB stat
.param
+r1_c=agauss(0,1,1) r2_c=agauss(0,1,1) r3_c=agauss(0,1,1) r4_c=agauss(0,1,1) r5_c=agauss(0,1,1)
+par1=r1_c par2=r2_c par3=r3_c par4=r4_c par5=r5_c
+r6_c=agauss(0,1,1) r7_c=0             r8_c=0             r9_c=0             r10_c=0
+par6=r6_c par7=r7_c par8=r8_c par9=r9_c par10=r10_c
+r11_c=agauss(0,1,1) r12_c=agauss(0,1,1) r13_c=agauss(0,1,1) r14_c=agauss(0,1,1) r15_c=agauss(0,1,1)
+par11=r11_c par12=r12_c par13=r13_c par14=r14_c par15=r15_c
+r16_c=agauss(0,1,1) r17_c=0             r18_c=0             r19_c=0             r20_c=0
+par16=r16_c par17=r17_c par18=r18_c par19=r19_c par20=r20_c
+r21_c=agauss(0,1,1) r22_c=agauss(0,1,1) r23_c=agauss(0,1,1) r24_c=agauss(0,1,1) r25_c=agauss(0,1,1)
+par21=r21_c par22=r22_c par23=r23_c par24=r24_c par25=r25_c
+r26_c=agauss(0,1,1) r27_c=0             r28_c=0             r29_c=0             r30_c=0
+par26=r26_c par27=r27_c par28=r28_c par29=r29_c par30=r30_c
+r31_c=agauss(0,1,1) r32_c=agauss(0,1,1)
+par31=r31_c par32=r32_c
+r1_io=agauss(0,1,1) r2_io=agauss(0,1,1) r3_io=agauss(0,1,1) r4_io=agauss(0,1,1) r7_io=agauss(0,1,1) r8_io=agauss(0,1,1)
+par1_io=r1_io par2_io=r2_io par3_io=r3_io par4_io=r4_io par7_io=r7_io par8_io=r8_io
+r9_io=agauss(0,1,1) r10_io=agauss(0,1,1) r13_io=agauss(0,1,1) r14_io=agauss(0,1,1) r15_io=agauss(0,1,1) r16_io=agauss(0,1,1)
+par9_io=r9_io par10_io=r10_io par13_io=r13_io par14_io=r14_io par15_io=r15_io par16_io=r16_io
+r19_io=agauss(0,1,1) r20_io=agauss(0,1,1)
+par19_io=r19_io par20_io=r20_io
+plo_tox = agauss(0,1,1)    plo_dxl = agauss(0,1,1)    plo_dhfin = agauss(0,1,1)   plo_dtfin = agauss(0,1,1)
+parl1   = agauss(0,1,1)    parl2   = agauss(0,1,1)
+r1_cap=agauss(0,1,1) r2_cap=agauss(0,1,1)
+par1_cap=r1_cap par2_cap=r2_cap
+w1_c='1.7197*0.4050' w2_c='1.1427*-0.4027' w3_c='0.6831*0.3550' w4_c='0.6713*0.6677' w5_c='0.6574*0.2928' w6_c='0.6225*-0.1268' w7_c=0 w8_c=0 w9_c=0 w10_c=0
+w11_c='1.7197*0.3970' w12_c='1.1427*0.4666' w13_c='0.6831*0.1695' w14_c='0.6713*-0.0298' w15_c='0.6574*-0.3440' w16_c='0.6225*-0.6905' w17_c=0 w18_c=0 w19_c=0 w20_c=0
+w21_c='1.7197*0.4015' w22_c='1.1427*-0.4249' w23_c='0.6831*-0.3723' w24_c='0.6713*0.0390' w25_c='0.6574*-0.6927' w26_c='0.6225*0.1957' w27_c=0 w28_c=0 w29_c=0 w30_c=0
+w31_c='1.7197*0.4287' w32_c='1.1427*0.3608' w33_c='0.6831*0.4894' w34_c='0.6713*-0.1527' w35_c='0.6574*-0.0615' w36_c='0.6225*0.6476' w37_c=0 w38_c=0 w39_c=0 w40_c=0
+w41_c='1.7197*0.4077' w42_c='1.1427*-0.4014' w43_c='0.6831*0.0194' w44_c='0.6713*-0.7019' w45_c='0.6574*0.3787' w46_c='0.6225*-0.1905' w47_c=0 w48_c=0 w49_c=0 w50_c=0
+w51_c='1.7197*0.4089' w52_c='1.1427*0.3850' w53_c='0.6831*-0.6832' w54_c='0.6713*0.1890' w55_c='0.6574*0.4110' w56_c='0.6225*0.1147' w57_c=0 w58_c=0 w59_c=0 w60_c=0
+w61_c=0 w62_c=0 w63_c=0 w64_c=0 w65_c=0 w66_c=0 w67_c=0 w68_c=0 w69_c=0 w70_c=0
+w71_c=0 w72_c=0 w73_c=0 w74_c=0 w75_c=0 w76_c=0 w77_c=0 w78_c=0 w79_c=0 w80_c=0
+w81_c=0 w82_c=0 w83_c=0 w84_c=0 w85_c=0 w86_c=0 w87_c=0 w88_c=0 w89_c=0 w90_c=0
+w91_c=0 w92_c=0 w93_c=0 w94_c=0 w95_c=0 w96_c=0 w97_c=0 w98_c=0 w99_c=0 w100_c=0
+w1_io='1.4006*0.5038' w2_io='1.0655*-0.4915' w3_io='0.6807*0.5065' w4_io='0.6629*0.4981'
+w7_io='1.4006*0.4964' w8_io='1.0655*0.5081' w9_io='0.6807*-0.4939' w10_io='0.6629*0.5016'
+w13_io='1.4006*0.4956' w14_io='1.0655*-0.5090' w15_io='0.6807*-0.5139' w16_io='0.6629*-0.4808'
+w19_io='1.4006*0.5042' w20_io='1.0655*0.4911' w21_io='0.6807*0.4852' w22_io='0.6629*-0.5188'
+p1_c1n='w1_c*par1+w2_c*par2+w3_c*par3+w4_c*par4+w5_c*par5+w6_c*par6+w7_c*par7+w8_c*par8+w9_c*par9+w10_c*par10'
+p1_c1p='w11_c*par1+w12_c*par2+w13_c*par3+w14_c*par4+w15_c*par5+w16_c*par6+w17_c*par7+w18_c*par8+w19_c*par9+w20_c*par10'
+p1_c2n='w21_c*par1+w22_c*par2+w23_c*par3+w24_c*par4+w25_c*par5+w26_c*par6+w27_c*par7+w28_c*par8+w29_c*par9+w30_c*par10'
+p1_c2p='w31_c*par1+w32_c*par2+w33_c*par3+w34_c*par4+w35_c*par5+w36_c*par6+w37_c*par7+w38_c*par8+w39_c*par9+w40_c*par10'
+p1_c3n='w41_c*par1+w42_c*par2+w43_c*par3+w44_c*par4+w45_c*par5+w46_c*par6+w47_c*par7+w48_c*par8+w49_c*par9+w50_c*par10'
+p1_c3p='w51_c*par1+w52_c*par2+w53_c*par3+w54_c*par4+w55_c*par5+w56_c*par6+w57_c*par7+w58_c*par8+w59_c*par9+w60_c*par10'
+p1_c4n='w61_c*par1+w62_c*par2+w63_c*par3+w64_c*par4+w65_c*par5+w66_c*par6+w67_c*par7+w68_c*par8+w69_c*par9+w70_c*par10'
+p1_c4p='w71_c*par1+w72_c*par2+w73_c*par3+w74_c*par4+w75_c*par5+w76_c*par6+w77_c*par7+w78_c*par8+w79_c*par9+w80_c*par10'
+p1_c5n='w81_c*par1+w82_c*par2+w83_c*par3+w84_c*par4+w85_c*par5+w86_c*par6+w87_c*par7+w88_c*par8+w89_c*par9+w90_c*par10'
+p1_c5p='w91_c*par1+w92_c*par2+w93_c*par3+w94_c*par4+w95_c*par5+w96_c*par6+w97_c*par7+w98_c*par8+w99_c*par9+w100_c*par10'
+p2_c1n='w1_c*par11+w2_c*par12+w3_c*par13+w4_c*par14+w5_c*par15+w6_c*par16+w7_c*par17+w8_c*par18+w9_c*par19+w10_c*par20'
+p2_c1p='w11_c*par11+w12_c*par12+w13_c*par13+w14_c*par14+w15_c*par15+w16_c*par16+w17_c*par17+w18_c*par18+w19_c*par19+w20_c*par20'
+p2_c2n='w21_c*par11+w22_c*par12+w23_c*par13+w24_c*par14+w25_c*par15+w26_c*par16+w27_c*par17+w28_c*par18+w29_c*par19+w30_c*par20'
+p2_c2p='w31_c*par11+w32_c*par12+w33_c*par13+w34_c*par14+w35_c*par15+w36_c*par16+w37_c*par17+w38_c*par18+w39_c*par19+w40_c*par20'
+p2_c3n='w41_c*par11+w42_c*par12+w43_c*par13+w44_c*par14+w45_c*par15+w46_c*par16+w47_c*par17+w48_c*par18+w49_c*par19+w50_c*par20'
+p2_c3p='w51_c*par11+w52_c*par12+w53_c*par13+w54_c*par14+w55_c*par15+w56_c*par16+w57_c*par17+w58_c*par18+w59_c*par19+w60_c*par20'
+p2_c4n='w61_c*par11+w62_c*par12+w63_c*par13+w64_c*par14+w65_c*par15+w66_c*par16+w67_c*par17+w68_c*par18+w69_c*par19+w70_c*par20'
+p2_c4p='w71_c*par11+w72_c*par12+w73_c*par13+w74_c*par14+w75_c*par15+w76_c*par16+w77_c*par17+w78_c*par18+w79_c*par19+w80_c*par20'
+p2_c5n='w81_c*par11+w82_c*par12+w83_c*par13+w84_c*par14+w85_c*par15+w86_c*par16+w87_c*par17+w88_c*par18+w89_c*par19+w90_c*par20'
+p2_c5p='w91_c*par11+w92_c*par12+w93_c*par13+w94_c*par14+w95_c*par15+w96_c*par16+w97_c*par17+w98_c*par18+w99_c*par19+w100_c*par20'
+p3_c1n='w1_c*par21+w2_c*par22+w3_c*par23+w4_c*par24+w5_c*par25+w6_c*par26+w7_c*par27+w8_c*par28+w9_c*par29+w10_c*par30'
+p3_c1p='w11_c*par21+w12_c*par22+w13_c*par23+w14_c*par24+w15_c*par25+w16_c*par26+w17_c*par27+w18_c*par28+w19_c*par29+w20_c*par30'
+p3_c2n='w21_c*par21+w22_c*par22+w23_c*par23+w24_c*par24+w25_c*par25+w26_c*par26+w27_c*par27+w28_c*par28+w29_c*par29+w30_c*par30'
+p3_c2p='w31_c*par21+w32_c*par22+w33_c*par23+w34_c*par24+w35_c*par25+w36_c*par26+w37_c*par27+w38_c*par28+w39_c*par29+w40_c*par30'
+p3_c3n='w41_c*par21+w42_c*par22+w43_c*par23+w44_c*par24+w45_c*par25+w46_c*par26+w47_c*par27+w48_c*par28+w49_c*par29+w50_c*par30'
+p3_c3p='w51_c*par21+w52_c*par22+w53_c*par23+w54_c*par24+w55_c*par25+w56_c*par26+w57_c*par27+w58_c*par28+w59_c*par29+w60_c*par30'
+p3_c4n='w61_c*par21+w62_c*par22+w63_c*par23+w64_c*par24+w65_c*par25+w66_c*par26+w67_c*par27+w68_c*par28+w69_c*par29+w70_c*par30'
+p3_c4p='w71_c*par21+w72_c*par22+w73_c*par23+w74_c*par24+w75_c*par25+w76_c*par26+w77_c*par27+w78_c*par28+w79_c*par29+w80_c*par30'
+p3_c5n='w81_c*par21+w82_c*par22+w83_c*par23+w84_c*par24+w85_c*par25+w86_c*par26+w87_c*par27+w88_c*par28+w89_c*par29+w90_c*par30'
+p3_c5p='w91_c*par21+w92_c*par22+w93_c*par23+w94_c*par24+w95_c*par25+w96_c*par26+w97_c*par27+w98_c*par28+w99_c*par29+w100_c*par30'
+p4_c1n='par31'
+p4_c1p='par31'
+p4_c2n='par31'
+p4_c2p='par31'
+p4_c3n='par31'
+p4_c3p='par31'
+p4_c4n='par31'
+p4_c4p='par31'
+p4_c5n='par31'
+p4_c5p='par31'
+p5_c1n='par32'
+p5_c1p='par32'
+p5_c2n='par32'
+p5_c2p='par32'
+p5_c3n='par32'
+p5_c3p='par32'
+p5_c4n='par32'
+p5_c4p='par32'
+p5_c5n='par32'
+p5_c5p='par32'
+p1_io1n='w1_io*par1_io+w2_io*par2_io+w3_io*par3_io+w4_io*par4_io'
+p1_io1p='w7_io*par1_io+w8_io*par2_io+w9_io*par3_io+w10_io*par4_io'
+p1_io2n='w13_io*par1_io+w14_io*par2_io+w15_io*par3_io+w16_io*par4_io'
+p1_io2p='w19_io*par1_io+w20_io*par2_io+w21_io*par3_io+w22_io*par4_io'
[...]
+dxln_mvar='0.0-4.00000e-10*sigma_factor_cap' dtfinn_mvar='0.0-3.33333e-10*sigma_factor_cap' dhfinn_mvar='0.0-8.00000e-10*sigma_factor_cap' dcparn_mvar='1-0.113*sigma_factor_cap'
+dxfacn_mvar='0.0-0.82000*sigma_factor_cap' dkcvn_mvar='1.0+6.00000e-02*sigma_factor_cap' dlkcvn_mvar='0+0*sigma_factor_cap'
.lib 'cln7_1d8_sp_v1d2_2p2.l' MOS_CAP
.ENDL SS_MOS_CAP

***************************     CORNER_LIB OF FAST MODEL     ***************************
.LIB FF_MOS_CAP
.lib 'cln7_1d8_sp_v1d2_2p2.l' setup_cap
.param
+dcgminn_mvar='1.0+5.50000e-01*sigma_factor_cap' detgn_mvar='1.0-0.05500*sigma_factor_cap' dcfrwn_mvar='1.0+0.23*sigma_factor_cap' dcfrln_mvar='1.0+0.8*sigma_factor_cap'
+ddvgsn_mvar='0.0-3.00000e-02*sigma_factor_cap' dldvgsn_mvar='0.0-0*sigma_factor_cap' dadopn_mvar='1-0*sigma_factor_cap' dladopn_mvar='0.0-0*sigma_factor_cap'
+dxln_mvar='0.0+4.00000e-10*sigma_factor_cap' dtfinn_mvar='0.0+3.33333e-10*sigma_factor_cap' dhfinn_mvar='0.0+8.00000e-10*sigma_factor_cap' dcparn_mvar='1+0.113*sigma_factor_cap'
+dxfacn_mvar='0.0+0.82000*sigma_factor_cap' dkcvn_mvar='1.0-4.00000e-02*sigma_factor_cap' dlkcvn_mvar='0-0*sigma_factor_cap'
.lib 'cln7_1d8_sp_v1d2_2p2.l' MOS_CAP
.ENDL FF_MOS_CAP

**************************************************************************
*                                                                        *
*              NMOS in N-Well Varactor MODEL                             *
*                                                                        *
**************************************************************************
.LIB MOS_CAP
*
*StartField_RedPar
*DUTName=nmoscap
*red_ver_nmoscap = 004
*EndField_RedPar
***************************************************************************
.subckt nmoscap ng nds lr=0.24u wr=0.578u nfin=0.01 scale=scale_cap ccoflag=ccoflag_cap rgateflag=rgflag_cap multi=1 _igflag=igflag_cap
.param
+tfindrw_mvar  = 8.00000e-09                    fpitch_mvar   = 3.00000e-08                    tfin_mvar     = 6.00000e-09
+hfin_mvar     = 4.20000e-08
+nfin_mvar     = 'nfin>0.01?max(1,int(nfin)):max(1,int((wr*scale-tfindrw_mvar)/fpitch_mvar+1+1e-9))'
+wdrawn_mvar   = '((nfin_mvar-1)*fpitch_mvar+tfindrw_mvar)/scale'
+leff_mvar     = 'lr*scale+xl_mvar+dxln_mvar'
+weff_mvar     = 'nfin_mvar*(2*(hfin_mvar+dhfinn_mvar)+tfin_mvar+dtfinn_mvar)+xw_mvar'
*
+cm0a_mvar     = 4.15818e-04
+cfco_mvar     = 2.17339e-11                    cm0l_mvar     = 2.32509e-10                    cpar_mvar     = 1.48866e-16
+cfrw_mvar     = 1.13454e-10                    cfrl_mvar     = 2.07931e-11                    xw_mvar       = 2.47515e-08                    xl_mvar       = 1.16187e-08
+area_mvar     = 'leff_mvar*weff_mvar'
+cf_mvar       = 'cfrw_mvar*dcfrwn_mvar*2*weff_mvar+cfrl_mvar*dcfrln_mvar*2*leff_mvar+(cm0a_mvar*(weff_mvar-xw_mvar)*(leff_mvar-xl_mvar)+cfco_mvar*2*(weff_mvar-xw_mvar)+cm0l_mvar*2*(leff_mvar-xl_mvar)+cpar_mvar)*ccoflag*dcparn_mvar'
*
+dvgs_mvar     = 1.89051e-01                    etg_mvar      = 1.22839e-09                    kcv_mvar      = 1.24720e+00
+ldeb_mvar     = 1.90242e-09                    acde_mvar     = 6.96343e-09                    cgmin_mvar    = 1.30449e-04
+adop_mvar     = 1.78015e-01                    bdop_mvar     = 1.84739e-01
+dvgst1_mvar   = 2.74614e-04                    kcvt1_mvar    = 4.87120e-03                    cgmint1_mvar  = 2.00000e-11
*
+ldvgs_mvar    = 1.00000e-09                    letg_mvar     = 0.00000e+00                    lkcv_mvar     = 8.00000e-09
+ladop_mvar    = 2.00000e-07                    lkcvt1_mvar   = 0.00000e+00
*
+etg0_mvar     = '(etg_mvar+letg_mvar/leff_mvar)*detgn_mvar'
+dvgs0_mvar    = '(dvgs_mvar+(ddvgsn_mvar+dldvgsn_mvar/leff_mvar)-(dvgst1_mvar)*(temper-25))+ldvgs_mvar/leff_mvar'
+kcv0_mvar     = '(kcv_mvar+lkcv_mvar/leff_mvar)*(dkcvn_mvar+dlkcvn_mvar/leff_mvar)*(1+(abs(kcvt1_mvar+lkcvt1_mvar/leff_mvar)*(temper-25)))'
+adop0_mvar    = '(1)*(adop_mvar+ladop_mvar/leff_mvar)*(dadopn_mvar+dladopn_mvar/leff_mvar)'
+ktq_mvar      = 1.61000e-08                    eg_mvar       = 3.45300e-11
+m_mvar        = 'ktq_mvar/etg0_mvar' c2_mvar       = 'kcv0_mvar/4/m_mvar/m_mvar'
+int_mvar      = 'area_mvar*eg_mvar/2/ktq_mvar'
+cgmin0_mvar   = 'cgmin_mvar*dcgminn_mvar*area_mvar*(1+(cgmint1_mvar)*(temper-25))'
+acde1_mvar    = '-1*eg_mvar/acde_mvar*area_mvar' acde2_mvar    = '-1*acde_mvar/2/ktq_mvar'
*
+xw1_mvar      = '9.02721e-08*0.37'                    xl1_mvar      = '6.63590e-08*1.12'
+foreff_mvar   = '6.15450e+02*5.1*2'                    reveff_mvar   = '8.39200e-05*5.1*2'                    varbf_mvar    = 1.05659e+01
+varbr_mvar    = 2.34076e+01                    a1_mvar       = 8.00000e-01                    a2_mvar       = 5.70673e+00
+a3_mvar       = 1.00000e-08                    a_mvar        = 1.08853e+00
+forefft1_mvar = 1.22970e+00                    revefft1_mvar = 4.50688e+00                    a3t1_mvar     = 2.00000e+00
+for_eff_mvar  = 'foreff_mvar*pwr(abs((273.15+temper)/(273.15+25)),forefft1_mvar)'
+rev_eff_mvar  = 'reveff_mvar*pwr(abs((273.15+temper)/(273.15+25)),revefft1_mvar)'
+a3_0_mvar     = 'a3_mvar*pwr(abs((273.15+temper)/(273.15+25)),a3t1_mvar)'
+leff1_mvar    = 'lr*scale+xl1_mvar+dxln_mvar'
+weff1_mvar    = 'nfin_mvar*(2*(hfin_mvar+dhfinn_mvar)+tfin_mvar+dtfinn_mvar)+xw1_mvar'
+area1_mvar    = 'leff1_mvar*(pwr(abs(weff1_mvar*1e6),a_mvar))*1e-6'
*
+rgskew_rw_mvar= 5.00000e-01                    rgskew_rb_mvar= -5.00000e-01
+rsheet_mvar   = 25.50			        drsh_mvar     = 11.4000                    rshh_mvar     = -0.5974                   rshn_mvar     = 0.9400
+dlr_mvar      = 1.6000e-08                     llr_mvar      = -8.6799e-05                llnr_mvar     = 0.98628
+rsheet0_mvar  = 'rsheet_mvar*(1+rgskewflag_cap*rgskew_rw_mvar)' drsh0_mvar    = 'drsh_mvar*(1+rgskewflag_cap*rgskew_rw_mvar)' rshh0_mvar    = 'rshh_mvar*(1+rgskewflag_cap*rgskew_rw_mvar)' rshn0_mvar    = rshn_mvar
+deltar_mvar   = 'drsh0_mvar+rshh0_mvar/pwr(abs(lr*scale*1e6),rshn0_mvar)'
+deltal_mvar   = 'dlr_mvar+llr_mvar*1e-6/pwr(abs(lr*scale*1e6),llnr_mvar)'
+reff_mvar     = 'rsheet0_mvar-deltar_mvar'
+rmain_mvar    = 'reff_mvar*((nfin_mvar-1)*fpitch_mvar+tfindrw_mvar)/multi/(lr*scale-deltal_mvar)'
+rngcon_mvar   = 'ngconflag_cap ==1?3:ngconflag_cap ==2?12:3'
*
rpoly ng a 'rgateflag*rmain_mvar/rngcon_mvar+1e-2'
cg a nds q='multi*(cf_mvar*v(a,nds)+(int_mvar*(m_mvar*(v(a,nds)-dvgs0_mvar)+(1)*pwr(((v(a,nds)-dvgs0_mvar)*(v(a,nds)-dvgs0_mvar)*m_mvar*m_mvar+kcv0_mvar),0.5)))+cgmin0_mvar*((v(a,nds)-dvgs0_mvar)/2+(-1)*pwr(((v(a,nds)-dvgs0_mvar)*(v(a,nds)-dvgs0_mvar)/4+c2_mvar),0.5)+exp((1)*bdop_mvar*((v(a,nds)-dvgs0_mvar)/2+(-1)*pwr(((v(a,nds)-dvgs0_mvar)*(v(a,nds)-dvgs0_mvar)/4+c2_mvar),0.5)))*adop0_mvar)-acde1_mvar*log(exp(acde2_mvar*(m_mvar*(v(a,nds)-dvgs0_mvar)+(1)*pwr(((v(a,nds)-dvgs0_mvar)*(v(a,nds)-dvgs0_mvar)*m_mvar*m_mvar+kcv0_mvar),0.5)))+3*etg0_mvar/ldeb_mvar))'
gdf1 a nds cur='multi*(_igflag*exp(dxfacn_mvar)*area1_mvar*((1)*for_eff_mvar*(pwr(0.5*(sqrt(v(a,nds)*v(a,nds)+a1_mvar)+v(a,nds)),varbf_mvar)-pwr(abs(0.5*pwr(abs(a1_mvar),0.5)),varbf_mvar))-(1)*rev_eff_mvar*(pwr(0.5*(sqrt(v(a,nds)*v(a,nds)+a2_mvar)-v(a,nds)),varbr_mvar)-pwr(abs(0.5*pwr(abs(a2_mvar),0.5)),varbr_mvar))+a3_0_mvar*v(a,nds)))'
.ends nmoscap
.ENDL MOS_CAP

**************************************************************************
*                                                                        *
*              1.8V IO NMOS in N-Well Varactor MODEL                     *
*                                                                        *
**************************************************************************
.LIB total_mos_cap_18
.lib 'cln7_1d8_sp_v1d2_2p2.l' setup_cap_18
.param

+dtoxn_io18=1e-010


+weight1n_io18=5.67483160144
+weight2n_io18=3.3792271525
+weight3n_io18=1.84639354266
+weight4n_io18=1.21822135914
+weight5n_io18=0.695613220751

+tox_1n_io18 = 8.57885417715e-12    tox_2n_io18 = -1.60557191687e-11    tox_3n_io18 = 1.38966998647e-12    tox_4n_io18 = 1.45883314983e-12    tox_5n_io18 = 9.83084826765e-11
+dxl_1n_io18 = 3.00147829378e-10    dxl_2n_io18 = 4.48759904032e-10    dxl_3n_io18 = 6.44775212663e-12    dxl_4n_io18 = -1.99508456142e-09    dxl_5n_io18 = 7.66136713304e-11
+dtfin_1n_io18 = -4.65128381719e-11    dtfin_2n_io18 = -7.44612966973e-11    dtfin_3n_io18 = -1.65343036065e-12    dtfin_4n_io18 = -2.80779026861e-10    dtfin_5n_io18 = -3.91212769729e-12
+dhfin_1n_io18 = -6.29474204241e-11    dhfin_2n_io18 = -1.00771468899e-10    dhfin_3n_io18 = -2.23763172558e-12    dhfin_4n_io18 = -3.79989501432e-10    dhfin_5n_io18 = -5.29446492422e-12

+stretch1n_io18=1.52
+stretch2n_io18='1/stretch1n_io18'
+a1n_io18='p1_io2n*weight1n_io18/stretch1n_io18*sigma_factor_cap_18'
+a2n_io18='p2_io2n*weight2n_io18/stretch1n_io18*sigma_factor_cap_18'
+a3n_io18='p3_io2n*weight3n_io18/stretch1n_io18*sigma_factor_cap_18'
+a4n_io18='p4_io2n*weight4n_io18/stretch1n_io18*sigma_factor_cap_18'
+a5n_io18='p5_io2n*weight5n_io18/stretch1n_io18*sigma_factor_cap_18'
+p1_toxn_io18 ='1/dtoxn_io18*stretch1n_io18*stretch2n_io18*(tox_1n_io18*a1n_io18+tox_2n_io18*a2n_io18+tox_3n_io18*a3n_io18+tox_4n_io18*a4n_io18+tox_5n_io18*a5n_io18)'
+p1_dxln_io18 ='1/3.33333e-09*stretch1n_io18*stretch2n_io18*(dxl_1n_io18*a1n_io18+dxl_2n_io18*a2n_io18+dxl_3n_io18*a3n_io18+dxl_4n_io18*a4n_io18+dxl_5n_io18*a5n_io18)'
+p1_dtfinn_io18 ='1/5.00000e-10*stretch1n_io18*stretch2n_io18*(dtfin_1n_io18*a1n_io18+dtfin_2n_io18*a2n_io18+dtfin_3n_io18*a3n_io18+dtfin_4n_io18*a4n_io18+dtfin_5n_io18*a5n_io18)'
+p1_dhfinn_io18 ='1/6.76667e-10*stretch1n_io18*stretch2n_io18*(dhfin_1n_io18*a1n_io18+dhfin_2n_io18*a2n_io18+dhfin_3n_io18*a3n_io18+dhfin_4n_io18*a4n_io18+dhfin_5n_io18*a5n_io18)'

+a1_mos_cap_18='par1_cap*2.4392/2.9'
+dcgminn_mvar_18='1.00000e+00+((-0.038947)*a1_mos_cap_18)*sigma_factor_cap_18'
+dcfrwn_mvar_18 ='1.00000e+00+((-0.20461)*a1_mos_cap_18)*sigma_factor_cap_18'
+dcfrln_mvar_18 ='1.00000e+00+((-0.20461)*a1_mos_cap_18)*sigma_factor_cap_18'
+ddvgsn_mvar_18 ='0.00000e+00+((0.014394)*a1_mos_cap_18)*sigma_factor_cap_18'
+dcparn_mvar_18 ='1.00000e+00+((-0.041331)*a1_mos_cap_18)*sigma_factor_cap_18'
+dkcvn_mvar_18  ='1.00000e+00+((0.022866)*a1_mos_cap_18)*sigma_factor_cap_18'
+dldvgsn_mvar_18=0.00000e+00
+dadopn_mvar_18 =1.00000e+00
+dladopn_mvar_18=0.00000e+00
+dlkcvn_mvar_18 =0.00000e+00
+detgn_mvar_18    ='1+p1_toxn_io18*0.0238*1.75'
+dxln_mvar_18    ='p1_dxln_io18*1.1111e-009*3.5'
+dtfinn_mvar_18  ='p1_dtfinn_io18*1.6667e-010*3.5'
+dhfinn_mvar_18  ='p1_dhfinn_io18*2.2556e-010*9'
+dxfacn_mvar_18  ='0-p1_toxn_io18*0.4333*1.5'

.lib 'cln7_1d8_sp_v1d2_2p2.l' mos_cap_18
.ENDL total_mos_cap_18

**************************************************************************
*                                                                        *
*              1.8V IO NMOS in N-Well Varactor MODEL                     *
*                                                                        *
**************************************************************************
***************************    CORNER_LIB OF TYPICAL MODEL   ***************************
.LIB TT_MOS_CAP_18
.lib 'cln7_1d8_sp_v1d2_2p2.l' setup_cap_18
.param
+dcgminn_mvar_18= 1.00000e+00                    detgn_mvar_18  = 1.00000e+00                    dcfrwn_mvar_18 = 1.00000e+00                    dcfrln_mvar_18 = 1.00000e+00
+ddvgsn_mvar_18 = 0.00000e+00                    dldvgsn_mvar_18= 0.00000e+00                    dadopn_mvar_18 = 1.00000e+00                    dladopn_mvar_18= 0.00000e+00
+dxln_mvar_18   = 0.00000e+00                    dtfinn_mvar_18 = 0.00000e+00                    dhfinn_mvar_18 = 0.00000e+00                    dcparn_mvar_18 = 1.00000e+00
+dxfacn_mvar_18 = 0.00000e+00                    dkcvn_mvar_18  = 1.00000e+00                    dlkcvn_mvar_18 = 0.00000e+00
.lib 'cln7_1d8_sp_v1d2_2p2.l' MOS_CAP_18
.ENDL TT_MOS_CAP_18

***************************     CORNER_LIB OF SLOW MODEL     ***************************
.LIB SS_MOS_CAP_18
.lib 'cln7_1d8_sp_v1d2_2p2.l' setup_cap_18
.param
+dcgminn_mvar_18='1.0-1.00000e-01*sigma_factor_cap_18' detgn_mvar_18='1.0+0.07300*sigma_factor_cap_18' dcfrwn_mvar_18='1.0-5.00000e-01*sigma_factor_cap_18' dcfrln_mvar_18='1.0-5.00000e-01*sigma_factor_cap_18'
+ddvgsn_mvar_18='0.0+4.00000e-02*sigma_factor_cap_18' dldvgsn_mvar_18='0.0+0.00000e+00*sigma_factor_cap_18' dadopn_mvar_18='1.0+0.00000e+00*sigma_factor_cap_18' dladopn_mvar_18='0.0+0.00000e+00*sigma_factor_cap_18'
+dxln_mvar_18='0.0-3.33333e-09*sigma_factor_cap_18' dtfinn_mvar_18='0.0-5.00000e-10*sigma_factor_cap_18' dhfinn_mvar_18='0.0-6.76667e-10*sigma_factor_cap_18' dcparn_mvar_18='1.0-0.101*sigma_factor_cap_18'
+dxfacn_mvar_18='0.0-1.30000*sigma_factor_cap_18' dkcvn_mvar_18='1.0+8.00000e-02*sigma_factor_cap_18' dlkcvn_mvar_18='0.0+0.00000e+00*sigma_factor_cap_18'
.lib 'cln7_1d8_sp_v1d2_2p2.l' MOS_CAP_18
.ENDL SS_MOS_CAP_18

***************************     CORNER_LIB OF FAST MODEL     ***************************
.LIB FF_MOS_CAP_18
.lib 'cln7_1d8_sp_v1d2_2p2.l' setup_cap_18
.param
+dcgminn_mvar_18='1.0+9.00000e-02*sigma_factor_cap_18' detgn_mvar_18='1.0-0.07000*sigma_factor_cap_18' dcfrwn_mvar_18='1.0+5.00000e-01*sigma_factor_cap_18' dcfrln_mvar_18='1.0+5.00000e-01*sigma_factor_cap_18'
+ddvgsn_mvar_18='0.0-3.00000e-02*sigma_factor_cap_18' dldvgsn_mvar_18='0.0+0.00000e+00*sigma_factor_cap_18' dadopn_mvar_18='1.0+0.00000e+00*sigma_factor_cap_18' dladopn_mvar_18='0.0+0.00000e+00*sigma_factor_cap_18'
+dxln_mvar_18='0.0+3.33333e-09*sigma_factor_cap_18' dtfinn_mvar_18='0.0+5.00000e-10*sigma_factor_cap_18' dhfinn_mvar_18='0.0+6.76667e-10*sigma_factor_cap_18' dcparn_mvar_18='1.0+0.101*sigma_factor_cap_18'
+dxfacn_mvar_18='0.0+1.30000*sigma_factor_cap_18' dkcvn_mvar_18='1.0-3.00000e-02*sigma_factor_cap_18' dlkcvn_mvar_18='0.0+0.00000e+00*sigma_factor_cap_18'
.lib 'cln7_1d8_sp_v1d2_2p2.l' MOS_CAP_18
.ENDL FF_MOS_CAP_18

**************************************************************************
*                                                                        *
*              1.8V IO NMOS in N-Well Varactor MODEL                     *
*                                                                        *
**************************************************************************
.LIB MOS_CAP_18
*
*StartField_RedPar
*DUTName=nmoscap_18
*red_ver_nmoscap = 004
*EndField_RedPar
***************************************************************************
.subckt nmoscap_18 ng nds lr=0.24u wr=0.578u nfin=0.01 scale=scale_cap_18 ccoflag=ccoflag_cap_18 rgateflag=rgflag_cap_18 multi=1 _igflag=igflag_cap_18
.param
+tfindrw_mvar  = 8.00000e-09                    fpitch_mvar   = 3.00000e-08                    tfin_mvar     = 6.00000e-09
+hfin_mvar     = 3.90000e-08
+nfin_mvar     = 'nfin>0.01?max(1,int(nfin)):max(1,int((wr*scale-tfindrw_mvar)/fpitch_mvar+1+1e-9))'
+wdrawn_mvar   = '((nfin_mvar-1)*fpitch_mvar+tfindrw_mvar)/scale'
+leff_mvar     = 'lr*scale+xl_mvar+dxln_mvar_18'
+weff_mvar     = 'nfin_mvar*(2*(hfin_mvar+dhfinn_mvar_18)+tfin_mvar+dtfinn_mvar_18)+xw_mvar'
*
+cfco_mvar     = 8.88672e-11                    cm0l_mvar     = 3.66933e-10                    cpar_mvar     = 1.30142e-16
+cfrw_mvar     = 7.00175e-11                    cfrl_mvar     = 1.10000e-11                    xw_mvar       = 2.93253e-08                    xl_mvar       = 1.59417e-09
+area_mvar     = 'leff_mvar*weff_mvar'
+cf_mvar       = 'cfrw_mvar*dcfrwn_mvar_18*2*weff_mvar+cfrl_mvar*dcfrln_mvar_18*2*leff_mvar+(cfco_mvar*2*(weff_mvar-xw_mvar)+cm0l_mvar*2*(leff_mvar-xl_mvar)+cpar_mvar)*ccoflag*dcparn_mvar_18'
*
+dvgs_mvar     = 1.62301e-01                    etg_mvar      = 3.45629e-09                    kcv_mvar      = 3.16690e-01
+ldeb_mvar     = 1.65672e-09                    acde_mvar     = 4.19325e-09                    cgmin_mvar    = 1.13097e-04
+adop_mvar     = 3.88090e+00                    bdop_mvar     = 8.19627e-01
+dvgst1_mvar   = 3.97394e-04                    kcvt1_mvar    = 4.09786e-03                    cgmint1_mvar  = 2.00000e-11
*
+ldvgs_mvar    = 0.00000e+00                    letg_mvar     = 0.00000e+00                    lkcv_mvar     = 2.30000e-08
+ladop_mvar    = 2.73731e-06                    lkcvt1_mvar   = 0.00000e+00
*
+etg0_mvar     = '(etg_mvar+letg_mvar/leff_mvar)*detgn_mvar_18'
+dvgs0_mvar    = '(dvgs_mvar+(ddvgsn_mvar_18+dldvgsn_mvar_18/leff_mvar)-(dvgst1_mvar)*(temper-25))+ldvgs_mvar/leff_mvar'
+kcv0_mvar     = '(kcv_mvar+lkcv_mvar/leff_mvar)*(dkcvn_mvar_18+dlkcvn_mvar_18/leff_mvar)*(1+(abs(kcvt1_mvar+lkcvt1_mvar/leff_mvar)*(temper-25)))'
+adop0_mvar    = '(1)*(adop_mvar+ladop_mvar/leff_mvar)*(dadopn_mvar_18+dladopn_mvar_18/leff_mvar)'
+ktq_mvar      = 1.61000e-08                    eg_mvar       = 3.45300e-11
+m_mvar        = 'ktq_mvar/etg0_mvar' c2_mvar       = 'kcv0_mvar/4/m_mvar/m_mvar'
+int_mvar      = 'area_mvar*eg_mvar/2/ktq_mvar'
+cgmin0_mvar   = 'cgmin_mvar*dcgminn_mvar_18*area_mvar*(1+(cgmint1_mvar)*(temper-25))'
+acde1_mvar    = '-1*eg_mvar/acde_mvar*area_mvar' acde2_mvar    = '-1*acde_mvar/2/ktq_mvar'
*
+xw1_mvar      = -5.06287e-08                   xl1_mvar      = 9.68451e-08
+foreff_mvar   = 1.13560e-02                    reveff_mvar   = 1.00000e-10                    varbf_mvar    = 1.05674e+00
+varbr_mvar    = 1.00000e+01                    a1_mvar       = 8.00000e-01                    a2_mvar       = 8.00000e-01
+a3_mvar       = 1.00000e-08                    a_mvar        = 1.01000e+00
+forefft1_mvar = 5.66000e-03                    revefft1_mvar = 1.20000e-04                    a3t1_mvar     = 2.00000e-05
+for_eff_mvar  = 'foreff_mvar*pwr(abs((273.15+temper)/(273.15+25)),forefft1_mvar)'
+rev_eff_mvar  = 'reveff_mvar*pwr(abs((273.15+temper)/(273.15+25)),revefft1_mvar)'
+a3_0_mvar     = 'a3_mvar*pwr(abs((273.15+temper)/(273.15+25)),a3t1_mvar)'
+leff1_mvar    = 'lr*scale+xl1_mvar+dxln_mvar_18'
+weff1_mvar    = 'nfin_mvar*(2*(hfin_mvar+dhfinn_mvar_18)+tfin_mvar+dtfinn_mvar_18)+xw1_mvar'
+area1_mvar    = 'leff1_mvar*(pwr(abs(weff1_mvar*1e6),a_mvar))*1e-6'
*
+rgskew_rw_mvar= 5.00000e-01                    rgskew_rb_mvar= -5.00000e-01
+rsheet_mvar   = 25.50			        drsh_mvar     = 11.4000                    rshh_mvar     = -0.5974                   rshn_mvar     = 0.9400
+dlr_mvar      = 1.6000e-08                     llr_mvar      = -8.6799e-05                llnr_mvar     = 0.98628
+rsheet0_mvar  = 'rsheet_mvar*(1+rgskewflag_cap_18*rgskew_rw_mvar)' drsh0_mvar    = 'drsh_mvar*(1+rgskewflag_cap_18*rgskew_rw_mvar)' rshh0_mvar    = 'rshh_mvar*(1+rgskewflag_cap_18*rgskew_rw_mvar)' rshn0_mvar    = rshn_mvar
+deltar_mvar   = 'drsh0_mvar+rshh0_mvar/pwr(abs(lr*scale*1e6),rshn0_mvar)'
+deltal_mvar   = 'dlr_mvar+llr_mvar*1e-6/pwr(abs(lr*scale*1e6),llnr_mvar)'
+reff_mvar     = 'rsheet0_mvar-deltar_mvar'
+rmain_mvar    = 'reff_mvar*((nfin_mvar-1)*fpitch_mvar+tfindrw_mvar)/multi/(lr*scale-deltal_mvar)'
+rngcon_mvar   = 'ngconflag_cap_18==1?3:ngconflag_cap_18==2?12:3'
*
rpoly ng a 'rgateflag*rmain_mvar/rngcon_mvar+1e-2'
cg a nds q='multi*(cf_mvar*v(a,nds)+(int_mvar*(m_mvar*(v(a,nds)-dvgs0_mvar)+(1)*pwr(((v(a,nds)-dvgs0_mvar)*(v(a,nds)-dvgs0_mvar)*m_mvar*m_mvar+kcv0_mvar),0.5)))+cgmin0_mvar*((v(a,nds)-dvgs0_mvar)/2+(-1)*pwr(((v(a,nds)-dvgs0_mvar)*(v(a,nds)-dvgs0_mvar)/4+c2_mvar),0.5)+exp((1)*bdop_mvar*((v(a,nds)-dvgs0_mvar)/2+(-1)*pwr(((v(a,nds)-dvgs0_mvar)*(v(a,nds)-dvgs0_mvar)/4+c2_mvar),0.5)))*adop0_mvar)-acde1_mvar*log(exp(acde2_mvar*(m_mvar*(v(a,nds)-dvgs0_mvar)+(1)*pwr(((v(a,nds)-dvgs0_mvar)*(v(a,nds)-dvgs0_mvar)*m_mvar*m_mvar+kcv0_mvar),0.5)))+3*etg0_mvar/ldeb_mvar))'
gdf1 a nds cur='multi*(_igflag*exp(dxfacn_mvar_18)*area1_mvar*((1)*for_eff_mvar*(pwr(0.5*(sqrt(v(a,nds)*v(a,nds)+a1_mvar)+v(a,nds)),varbf_mvar)-pwr(abs(0.5*pwr(abs(a1_mvar),0.5)),varbf_mvar))-(1)*rev_eff_mvar*(pwr(0.5*(sqrt(v(a,nds)*v(a,nds)+a2_mvar)-v(a,nds)),varbr_mvar)-pwr(abs(0.5*pwr(abs(a2_mvar),0.5)),varbr_mvar))+a3_0_mvar*v(a,nds)))'
.ends nmoscap_18
.ENDL MOS_CAP_18

